<?xml version="1.0" encoding="utf-8"?>
<routes>
   <route edges="East19 North8EX" id="EL"/>
   <vehicle depart="445.2936" departLane="best" departSpeed="desired" id="EL_1" route="EL"/>
   <vehicle depart="453.2936" departLane="best" departSpeed="desired" id="EL_2" route="EL"/>
   <vehicle depart="527.2936" departLane="best" departSpeed="desired" id="EL_3" route="EL"/>
   <vehicle depart="632.2936" departLane="best" departSpeed="desired" id="EL_4" route="EL"/>
   <vehicle depart="793.2936" departLane="best" departSpeed="desired" id="EL_5" route="EL"/>
   <vehicle depart="796.2936" departLane="best" departSpeed="desired" id="EL_6" route="EL"/>
   <vehicle depart="900.2936" departLane="best" departSpeed="desired" id="EL_7" route="EL"/>
   <vehicle depart="1095.2936" departLane="best" departSpeed="desired" id="EL_8" route="EL"/>
   <vehicle depart="2066.2936" departLane="best" departSpeed="desired" id="EL_9" route="EL"/>
   <vehicle depart="2257.2936" departLane="best" departSpeed="desired" id="EL_10"
            route="EL"/>
   <vehicle depart="2453.2936" departLane="best" departSpeed="desired" id="EL_11"
            route="EL"/>
   <vehicle depart="2777.2936" departLane="best" departSpeed="desired" id="EL_12"
            route="EL"/>
   <vehicle depart="3075.2936" departLane="best" departSpeed="desired" id="EL_13"
            route="EL"/>
   <vehicle depart="3393.2936" departLane="best" departSpeed="desired" id="EL_14"
            route="EL"/>
   <vehicle depart="3499.2936" departLane="best" departSpeed="desired" id="EL_15"
            route="EL"/>
   <vehicle depart="3525.2936" departLane="best" departSpeed="desired" id="EL_16"
            route="EL"/>
   <vehicle depart="3530.2936" departLane="best" departSpeed="desired" id="EL_17"
            route="EL"/>
   <vehicle depart="3623.2936" departLane="best" departSpeed="desired" id="EL_18"
            route="EL"/>
   <vehicle depart="3668.2936" departLane="best" departSpeed="desired" id="EL_19"
            route="EL"/>
   <vehicle depart="5053.2936" departLane="best" departSpeed="desired" id="EL_20"
            route="EL"/>
   <vehicle depart="5282.2936" departLane="best" departSpeed="desired" id="EL_21"
            route="EL"/>
   <vehicle depart="5301.2936" departLane="best" departSpeed="desired" id="EL_22"
            route="EL"/>
   <vehicle depart="5732.2936" departLane="best" departSpeed="desired" id="EL_23"
            route="EL"/>
   <vehicle depart="5914.2936" departLane="best" departSpeed="desired" id="EL_24"
            route="EL"/>
   <vehicle depart="7646.2936" departLane="best" departSpeed="desired" id="EL_25"
            route="EL"/>
   <vehicle depart="8521.2936" departLane="best" departSpeed="desired" id="EL_26"
            route="EL"/>
   <vehicle depart="9300.2936" departLane="best" departSpeed="desired" id="EL_27"
            route="EL"/>
   <vehicle depart="9634.2936" departLane="best" departSpeed="desired" id="EL_28"
            route="EL"/>
   <vehicle depart="9808.2936" departLane="best" departSpeed="desired" id="EL_29"
            route="EL"/>
   <vehicle depart="10465.2936" departLane="best" departSpeed="desired" id="EL_30"
            route="EL"/>
   <vehicle depart="10755.2936" departLane="best" departSpeed="desired" id="EL_31"
            route="EL"/>
   <vehicle depart="11024.2936" departLane="best" departSpeed="desired" id="EL_32"
            route="EL"/>
   <vehicle depart="11276.2936" departLane="best" departSpeed="desired" id="EL_33"
            route="EL"/>
   <vehicle depart="12196.2936" departLane="best" departSpeed="desired" id="EL_34"
            route="EL"/>
   <vehicle depart="14060.2936" departLane="best" departSpeed="desired" id="EL_35"
            route="EL"/>
   <vehicle depart="14075.2936" departLane="best" departSpeed="desired" id="EL_36"
            route="EL"/>
   <vehicle depart="15891.2936" departLane="best" departSpeed="desired" id="EL_37"
            route="EL"/>
   <vehicle depart="16451.2936" departLane="best" departSpeed="desired" id="EL_38"
            route="EL"/>
   <vehicle depart="16835.2936" departLane="best" departSpeed="desired" id="EL_39"
            route="EL"/>
   <vehicle depart="16903.2936" departLane="best" departSpeed="desired" id="EL_40"
            route="EL"/>
   <vehicle depart="17435.2936" departLane="best" departSpeed="desired" id="EL_41"
            route="EL"/>
   <vehicle depart="17465.2936" departLane="best" departSpeed="desired" id="EL_42"
            route="EL"/>
   <vehicle depart="17874.2936" departLane="best" departSpeed="desired" id="EL_43"
            route="EL"/>
   <vehicle depart="18065.2936" departLane="best" departSpeed="desired" id="EL_44"
            route="EL"/>
   <vehicle depart="18911.2936" departLane="best" departSpeed="desired" id="EL_45"
            route="EL"/>
   <vehicle depart="19522.2936" departLane="best" departSpeed="desired" id="EL_46"
            route="EL"/>
   <vehicle depart="19832.2936" departLane="best" departSpeed="desired" id="EL_47"
            route="EL"/>
   <vehicle depart="19867.2936" departLane="best" departSpeed="desired" id="EL_48"
            route="EL"/>
   <vehicle depart="20385.2936" departLane="best" departSpeed="desired" id="EL_49"
            route="EL"/>
   <vehicle depart="20536.2936" departLane="best" departSpeed="desired" id="EL_50"
            route="EL"/>
   <vehicle depart="20638.2936" departLane="best" departSpeed="desired" id="EL_51"
            route="EL"/>
   <vehicle depart="21090.2936" departLane="best" departSpeed="desired" id="EL_52"
            route="EL"/>
   <vehicle depart="21611.2936" departLane="best" departSpeed="desired" id="EL_53"
            route="EL"/>
   <vehicle depart="21618.2936" departLane="best" departSpeed="desired" id="EL_54"
            route="EL"/>
   <vehicle depart="21729.2936" departLane="best" departSpeed="desired" id="EL_55"
            route="EL"/>
   <vehicle depart="21768.2936" departLane="best" departSpeed="desired" id="EL_56"
            route="EL"/>
   <vehicle depart="21820.2936" departLane="best" departSpeed="desired" id="EL_57"
            route="EL"/>
   <vehicle depart="22340.2936" departLane="best" departSpeed="desired" id="EL_58"
            route="EL"/>
   <vehicle depart="22565.2936" departLane="best" departSpeed="desired" id="EL_59"
            route="EL"/>
   <vehicle depart="22601.2936" departLane="best" departSpeed="desired" id="EL_60"
            route="EL"/>
   <vehicle depart="22608.2936" departLane="best" departSpeed="desired" id="EL_61"
            route="EL"/>
   <vehicle depart="22784.2936" departLane="best" departSpeed="desired" id="EL_62"
            route="EL"/>
   <vehicle depart="22866.2936" departLane="best" departSpeed="desired" id="EL_63"
            route="EL"/>
   <vehicle depart="23036.2936" departLane="best" departSpeed="desired" id="EL_64"
            route="EL"/>
   <vehicle depart="23218.2936" departLane="best" departSpeed="desired" id="EL_65"
            route="EL"/>
   <vehicle depart="23336.2936" departLane="best" departSpeed="desired" id="EL_66"
            route="EL"/>
   <vehicle depart="23348.2936" departLane="best" departSpeed="desired" id="EL_67"
            route="EL"/>
   <vehicle depart="23358.2936" departLane="best" departSpeed="desired" id="EL_68"
            route="EL"/>
   <vehicle depart="23457.2936" departLane="best" departSpeed="desired" id="EL_69"
            route="EL"/>
   <vehicle depart="23463.2936" departLane="best" departSpeed="desired" id="EL_70"
            route="EL"/>
   <vehicle depart="23467.2936" departLane="best" departSpeed="desired" id="EL_71"
            route="EL"/>
   <vehicle depart="23694.2936" departLane="best" departSpeed="desired" id="EL_72"
            route="EL"/>
   <vehicle depart="23774.2936" departLane="best" departSpeed="desired" id="EL_73"
            route="EL"/>
   <vehicle depart="23984.2936" departLane="best" departSpeed="desired" id="EL_74"
            route="EL"/>
   <vehicle depart="23998.2936" departLane="best" departSpeed="desired" id="EL_75"
            route="EL"/>
   <vehicle depart="24052.2936" departLane="best" departSpeed="desired" id="EL_76"
            route="EL"/>
   <vehicle depart="24135.2936" departLane="best" departSpeed="desired" id="EL_77"
            route="EL"/>
   <vehicle depart="24180.2936" departLane="best" departSpeed="desired" id="EL_78"
            route="EL"/>
   <vehicle depart="24182.2936" departLane="best" departSpeed="desired" id="EL_79"
            route="EL"/>
   <vehicle depart="24205.2936" departLane="best" departSpeed="desired" id="EL_80"
            route="EL"/>
   <vehicle depart="24238.2936" departLane="best" departSpeed="desired" id="EL_81"
            route="EL"/>
   <vehicle depart="24277.2936" departLane="best" departSpeed="desired" id="EL_82"
            route="EL"/>
   <vehicle depart="24282.2936" departLane="best" departSpeed="desired" id="EL_83"
            route="EL"/>
   <vehicle depart="24359.2936" departLane="best" departSpeed="desired" id="EL_84"
            route="EL"/>
   <vehicle depart="24487.2936" departLane="best" departSpeed="desired" id="EL_85"
            route="EL"/>
   <vehicle depart="24495.2936" departLane="best" departSpeed="desired" id="EL_86"
            route="EL"/>
   <vehicle depart="24540.2936" departLane="best" departSpeed="desired" id="EL_87"
            route="EL"/>
   <vehicle depart="24542.2936" departLane="best" departSpeed="desired" id="EL_88"
            route="EL"/>
   <vehicle depart="24557.2936" departLane="best" departSpeed="desired" id="EL_89"
            route="EL"/>
   <vehicle depart="24557.2936" departLane="best" departSpeed="desired" id="EL_90"
            route="EL"/>
   <vehicle depart="24679.2936" departLane="best" departSpeed="desired" id="EL_91"
            route="EL"/>
   <vehicle depart="24695.2936" departLane="best" departSpeed="desired" id="EL_92"
            route="EL"/>
   <vehicle depart="24714.2936" departLane="best" departSpeed="desired" id="EL_93"
            route="EL"/>
   <vehicle depart="24720.2936" departLane="best" departSpeed="desired" id="EL_94"
            route="EL"/>
   <vehicle depart="24788.2936" departLane="best" departSpeed="desired" id="EL_95"
            route="EL"/>
   <vehicle depart="24805.2936" departLane="best" departSpeed="desired" id="EL_96"
            route="EL"/>
   <vehicle depart="24814.2936" departLane="best" departSpeed="desired" id="EL_97"
            route="EL"/>
   <vehicle depart="24865.2936" departLane="best" departSpeed="desired" id="EL_98"
            route="EL"/>
   <vehicle depart="24870.2936" departLane="best" departSpeed="desired" id="EL_99"
            route="EL"/>
   <vehicle depart="24900.2936" departLane="best" departSpeed="desired" id="EL_100"
            route="EL"/>
   <vehicle depart="24901.2936" departLane="best" departSpeed="desired" id="EL_101"
            route="EL"/>
   <vehicle depart="24933.2936" departLane="best" departSpeed="desired" id="EL_102"
            route="EL"/>
   <vehicle depart="24970.2936" departLane="best" departSpeed="desired" id="EL_103"
            route="EL"/>
   <vehicle depart="25002.2936" departLane="best" departSpeed="desired" id="EL_104"
            route="EL"/>
   <vehicle depart="25059.2936" departLane="best" departSpeed="desired" id="EL_105"
            route="EL"/>
   <vehicle depart="25092.2936" departLane="best" departSpeed="desired" id="EL_106"
            route="EL"/>
   <vehicle depart="25146.2936" departLane="best" departSpeed="desired" id="EL_107"
            route="EL"/>
   <vehicle depart="25212.2936" departLane="best" departSpeed="desired" id="EL_108"
            route="EL"/>
   <vehicle depart="25240.2936" departLane="best" departSpeed="desired" id="EL_109"
            route="EL"/>
   <vehicle depart="25458.2936" departLane="best" departSpeed="desired" id="EL_110"
            route="EL"/>
   <vehicle depart="25462.2936" departLane="best" departSpeed="desired" id="EL_111"
            route="EL"/>
   <vehicle depart="25463.2936" departLane="best" departSpeed="desired" id="EL_112"
            route="EL"/>
   <vehicle depart="25471.2936" departLane="best" departSpeed="desired" id="EL_113"
            route="EL"/>
   <vehicle depart="25488.2936" departLane="best" departSpeed="desired" id="EL_114"
            route="EL"/>
   <vehicle depart="25598.2936" departLane="best" departSpeed="desired" id="EL_115"
            route="EL"/>
   <vehicle depart="25612.2936" departLane="best" departSpeed="desired" id="EL_116"
            route="EL"/>
   <vehicle depart="25634.2936" departLane="best" departSpeed="desired" id="EL_117"
            route="EL"/>
   <vehicle depart="25642.2936" departLane="best" departSpeed="desired" id="EL_118"
            route="EL"/>
   <vehicle depart="25699.2936" departLane="best" departSpeed="desired" id="EL_119"
            route="EL"/>
   <vehicle depart="25710.2936" departLane="best" departSpeed="desired" id="EL_120"
            route="EL"/>
   <vehicle depart="25793.2936" departLane="best" departSpeed="desired" id="EL_121"
            route="EL"/>
   <vehicle depart="25809.2936" departLane="best" departSpeed="desired" id="EL_122"
            route="EL"/>
   <vehicle depart="25815.2936" departLane="best" departSpeed="desired" id="EL_123"
            route="EL"/>
   <vehicle depart="25819.2936" departLane="best" departSpeed="desired" id="EL_124"
            route="EL"/>
   <vehicle depart="25973.2936" departLane="best" departSpeed="desired" id="EL_125"
            route="EL"/>
   <vehicle depart="26010.2936" departLane="best" departSpeed="desired" id="EL_126"
            route="EL"/>
   <vehicle depart="26046.2936" departLane="best" departSpeed="desired" id="EL_127"
            route="EL"/>
   <vehicle depart="26101.2936" departLane="best" departSpeed="desired" id="EL_128"
            route="EL"/>
   <vehicle depart="26124.2936" departLane="best" departSpeed="desired" id="EL_129"
            route="EL"/>
   <vehicle depart="26207.2936" departLane="best" departSpeed="desired" id="EL_130"
            route="EL"/>
   <vehicle depart="26343.2936" departLane="best" departSpeed="desired" id="EL_131"
            route="EL"/>
   <vehicle depart="26366.2936" departLane="best" departSpeed="desired" id="EL_132"
            route="EL"/>
   <vehicle depart="26408.2936" departLane="best" departSpeed="desired" id="EL_133"
            route="EL"/>
   <vehicle depart="26448.2936" departLane="best" departSpeed="desired" id="EL_134"
            route="EL"/>
   <vehicle depart="26530.2936" departLane="best" departSpeed="desired" id="EL_135"
            route="EL"/>
   <vehicle depart="26590.2936" departLane="best" departSpeed="desired" id="EL_136"
            route="EL"/>
   <vehicle depart="26646.2936" departLane="best" departSpeed="desired" id="EL_137"
            route="EL"/>
   <vehicle depart="26662.2936" departLane="best" departSpeed="desired" id="EL_138"
            route="EL"/>
   <vehicle depart="26676.2936" departLane="best" departSpeed="desired" id="EL_139"
            route="EL"/>
   <vehicle depart="26737.2936" departLane="best" departSpeed="desired" id="EL_140"
            route="EL"/>
   <vehicle depart="26753.2936" departLane="best" departSpeed="desired" id="EL_141"
            route="EL"/>
   <vehicle depart="26756.2936" departLane="best" departSpeed="desired" id="EL_142"
            route="EL"/>
   <vehicle depart="26762.2936" departLane="best" departSpeed="desired" id="EL_143"
            route="EL"/>
   <vehicle depart="26789.2936" departLane="best" departSpeed="desired" id="EL_144"
            route="EL"/>
   <vehicle depart="26841.2936" departLane="best" departSpeed="desired" id="EL_145"
            route="EL"/>
   <vehicle depart="26942.2936" departLane="best" departSpeed="desired" id="EL_146"
            route="EL"/>
   <vehicle depart="26950.2936" departLane="best" departSpeed="desired" id="EL_147"
            route="EL"/>
   <vehicle depart="26983.2936" departLane="best" departSpeed="desired" id="EL_148"
            route="EL"/>
   <vehicle depart="27036.2936" departLane="best" departSpeed="desired" id="EL_149"
            route="EL"/>
   <vehicle depart="27091.2936" departLane="best" departSpeed="desired" id="EL_150"
            route="EL"/>
   <vehicle depart="27094.2936" departLane="best" departSpeed="desired" id="EL_151"
            route="EL"/>
   <vehicle depart="27107.2936" departLane="best" departSpeed="desired" id="EL_152"
            route="EL"/>
   <vehicle depart="27260.2936" departLane="best" departSpeed="desired" id="EL_153"
            route="EL"/>
   <vehicle depart="27265.2936" departLane="best" departSpeed="desired" id="EL_154"
            route="EL"/>
   <vehicle depart="27488.2936" departLane="best" departSpeed="desired" id="EL_155"
            route="EL"/>
   <vehicle depart="27490.2936" departLane="best" departSpeed="desired" id="EL_156"
            route="EL"/>
   <vehicle depart="27624.2936" departLane="best" departSpeed="desired" id="EL_157"
            route="EL"/>
   <vehicle depart="27698.2936" departLane="best" departSpeed="desired" id="EL_158"
            route="EL"/>
   <vehicle depart="27739.2936" departLane="best" departSpeed="desired" id="EL_159"
            route="EL"/>
   <vehicle depart="27798.2936" departLane="best" departSpeed="desired" id="EL_160"
            route="EL"/>
   <vehicle depart="27806.2936" departLane="best" departSpeed="desired" id="EL_161"
            route="EL"/>
   <vehicle depart="27833.2936" departLane="best" departSpeed="desired" id="EL_162"
            route="EL"/>
   <vehicle depart="27848.2936" departLane="best" departSpeed="desired" id="EL_163"
            route="EL"/>
   <vehicle depart="27867.2936" departLane="best" departSpeed="desired" id="EL_164"
            route="EL"/>
   <vehicle depart="27881.2936" departLane="best" departSpeed="desired" id="EL_165"
            route="EL"/>
   <vehicle depart="27890.2936" departLane="best" departSpeed="desired" id="EL_166"
            route="EL"/>
   <vehicle depart="27909.2936" departLane="best" departSpeed="desired" id="EL_167"
            route="EL"/>
   <vehicle depart="27938.2936" departLane="best" departSpeed="desired" id="EL_168"
            route="EL"/>
   <vehicle depart="27959.2936" departLane="best" departSpeed="desired" id="EL_169"
            route="EL"/>
   <vehicle depart="27972.2936" departLane="best" departSpeed="desired" id="EL_170"
            route="EL"/>
   <vehicle depart="28054.2936" departLane="best" departSpeed="desired" id="EL_171"
            route="EL"/>
   <vehicle depart="28100.2936" departLane="best" departSpeed="desired" id="EL_172"
            route="EL"/>
   <vehicle depart="28101.2936" departLane="best" departSpeed="desired" id="EL_173"
            route="EL"/>
   <vehicle depart="28145.2936" departLane="best" departSpeed="desired" id="EL_174"
            route="EL"/>
   <vehicle depart="28157.2936" departLane="best" departSpeed="desired" id="EL_175"
            route="EL"/>
   <vehicle depart="28167.2936" departLane="best" departSpeed="desired" id="EL_176"
            route="EL"/>
   <vehicle depart="28193.2936" departLane="best" departSpeed="desired" id="EL_177"
            route="EL"/>
   <vehicle depart="28240.2936" departLane="best" departSpeed="desired" id="EL_178"
            route="EL"/>
   <vehicle depart="28319.2936" departLane="best" departSpeed="desired" id="EL_179"
            route="EL"/>
   <vehicle depart="28382.2936" departLane="best" departSpeed="desired" id="EL_180"
            route="EL"/>
   <vehicle depart="28389.2936" departLane="best" departSpeed="desired" id="EL_181"
            route="EL"/>
   <vehicle depart="28389.2936" departLane="best" departSpeed="desired" id="EL_182"
            route="EL"/>
   <vehicle depart="28394.2936" departLane="best" departSpeed="desired" id="EL_183"
            route="EL"/>
   <vehicle depart="28413.2936" departLane="best" departSpeed="desired" id="EL_184"
            route="EL"/>
   <vehicle depart="28432.2936" departLane="best" departSpeed="desired" id="EL_185"
            route="EL"/>
   <vehicle depart="28460.2936" departLane="best" departSpeed="desired" id="EL_186"
            route="EL"/>
   <vehicle depart="28485.2936" departLane="best" departSpeed="desired" id="EL_187"
            route="EL"/>
   <vehicle depart="28489.2936" departLane="best" departSpeed="desired" id="EL_188"
            route="EL"/>
   <vehicle depart="28509.2936" departLane="best" departSpeed="desired" id="EL_189"
            route="EL"/>
   <vehicle depart="28587.2936" departLane="best" departSpeed="desired" id="EL_190"
            route="EL"/>
   <vehicle depart="28600.2936" departLane="best" departSpeed="desired" id="EL_191"
            route="EL"/>
   <vehicle depart="28682.2936" departLane="best" departSpeed="desired" id="EL_192"
            route="EL"/>
   <vehicle depart="28693.2936" departLane="best" departSpeed="desired" id="EL_193"
            route="EL"/>
   <vehicle depart="28718.2936" departLane="best" departSpeed="desired" id="EL_194"
            route="EL"/>
   <vehicle depart="28799.2936" departLane="best" departSpeed="desired" id="EL_195"
            route="EL"/>
   <vehicle depart="28816.2936" departLane="best" departSpeed="desired" id="EL_196"
            route="EL"/>
   <vehicle depart="28849.2936" departLane="best" departSpeed="desired" id="EL_197"
            route="EL"/>
   <vehicle depart="28850.2936" departLane="best" departSpeed="desired" id="EL_198"
            route="EL"/>
   <vehicle depart="28946.2936" departLane="best" departSpeed="desired" id="EL_199"
            route="EL"/>
   <vehicle depart="28993.2936" departLane="best" departSpeed="desired" id="EL_200"
            route="EL"/>
   <vehicle depart="29028.2936" departLane="best" departSpeed="desired" id="EL_201"
            route="EL"/>
   <vehicle depart="29089.2936" departLane="best" departSpeed="desired" id="EL_202"
            route="EL"/>
   <vehicle depart="29114.2936" departLane="best" departSpeed="desired" id="EL_203"
            route="EL"/>
   <vehicle depart="29187.2936" departLane="best" departSpeed="desired" id="EL_204"
            route="EL"/>
   <vehicle depart="29287.2936" departLane="best" departSpeed="desired" id="EL_205"
            route="EL"/>
   <vehicle depart="29294.2936" departLane="best" departSpeed="desired" id="EL_206"
            route="EL"/>
   <vehicle depart="29313.2936" departLane="best" departSpeed="desired" id="EL_207"
            route="EL"/>
   <vehicle depart="29392.2936" departLane="best" departSpeed="desired" id="EL_208"
            route="EL"/>
   <vehicle depart="29405.2936" departLane="best" departSpeed="desired" id="EL_209"
            route="EL"/>
   <vehicle depart="29438.2936" departLane="best" departSpeed="desired" id="EL_210"
            route="EL"/>
   <vehicle depart="29455.2936" departLane="best" departSpeed="desired" id="EL_211"
            route="EL"/>
   <vehicle depart="29460.2936" departLane="best" departSpeed="desired" id="EL_212"
            route="EL"/>
   <vehicle depart="29529.2936" departLane="best" departSpeed="desired" id="EL_213"
            route="EL"/>
   <vehicle depart="29686.2936" departLane="best" departSpeed="desired" id="EL_214"
            route="EL"/>
   <vehicle depart="29710.2936" departLane="best" departSpeed="desired" id="EL_215"
            route="EL"/>
   <vehicle depart="29807.2936" departLane="best" departSpeed="desired" id="EL_216"
            route="EL"/>
   <vehicle depart="29922.2936" departLane="best" departSpeed="desired" id="EL_217"
            route="EL"/>
   <vehicle depart="29940.2936" departLane="best" departSpeed="desired" id="EL_218"
            route="EL"/>
   <vehicle depart="30048.2936" departLane="best" departSpeed="desired" id="EL_219"
            route="EL"/>
   <vehicle depart="30129.2936" departLane="best" departSpeed="desired" id="EL_220"
            route="EL"/>
   <vehicle depart="30291.2936" departLane="best" departSpeed="desired" id="EL_221"
            route="EL"/>
   <vehicle depart="30301.2936" departLane="best" departSpeed="desired" id="EL_222"
            route="EL"/>
   <vehicle depart="30316.2936" departLane="best" departSpeed="desired" id="EL_223"
            route="EL"/>
   <vehicle depart="30371.2936" departLane="best" departSpeed="desired" id="EL_224"
            route="EL"/>
   <vehicle depart="30384.2936" departLane="best" departSpeed="desired" id="EL_225"
            route="EL"/>
   <vehicle depart="30505.2936" departLane="best" departSpeed="desired" id="EL_226"
            route="EL"/>
   <vehicle depart="30587.2936" departLane="best" departSpeed="desired" id="EL_227"
            route="EL"/>
   <vehicle depart="30615.2936" departLane="best" departSpeed="desired" id="EL_228"
            route="EL"/>
   <vehicle depart="30675.2936" departLane="best" departSpeed="desired" id="EL_229"
            route="EL"/>
   <vehicle depart="30695.2936" departLane="best" departSpeed="desired" id="EL_230"
            route="EL"/>
   <vehicle depart="30710.2936" departLane="best" departSpeed="desired" id="EL_231"
            route="EL"/>
   <vehicle depart="30736.2936" departLane="best" departSpeed="desired" id="EL_232"
            route="EL"/>
   <vehicle depart="30821.2936" departLane="best" departSpeed="desired" id="EL_233"
            route="EL"/>
   <vehicle depart="30830.2936" departLane="best" departSpeed="desired" id="EL_234"
            route="EL"/>
   <vehicle depart="30907.2936" departLane="best" departSpeed="desired" id="EL_235"
            route="EL"/>
   <vehicle depart="31108.2936" departLane="best" departSpeed="desired" id="EL_236"
            route="EL"/>
   <vehicle depart="31132.2936" departLane="best" departSpeed="desired" id="EL_237"
            route="EL"/>
   <vehicle depart="31133.2936" departLane="best" departSpeed="desired" id="EL_238"
            route="EL"/>
   <vehicle depart="31315.2936" departLane="best" departSpeed="desired" id="EL_239"
            route="EL"/>
   <vehicle depart="31505.2936" departLane="best" departSpeed="desired" id="EL_240"
            route="EL"/>
   <vehicle depart="31531.2936" departLane="best" departSpeed="desired" id="EL_241"
            route="EL"/>
   <vehicle depart="31595.2936" departLane="best" departSpeed="desired" id="EL_242"
            route="EL"/>
   <vehicle depart="31649.2936" departLane="best" departSpeed="desired" id="EL_243"
            route="EL"/>
   <vehicle depart="31663.2936" departLane="best" departSpeed="desired" id="EL_244"
            route="EL"/>
   <vehicle depart="31692.2936" departLane="best" departSpeed="desired" id="EL_245"
            route="EL"/>
   <vehicle depart="31836.2936" departLane="best" departSpeed="desired" id="EL_246"
            route="EL"/>
   <vehicle depart="31886.2936" departLane="best" departSpeed="desired" id="EL_247"
            route="EL"/>
   <vehicle depart="31912.2936" departLane="best" departSpeed="desired" id="EL_248"
            route="EL"/>
   <vehicle depart="32028.2936" departLane="best" departSpeed="desired" id="EL_249"
            route="EL"/>
   <vehicle depart="32104.2936" departLane="best" departSpeed="desired" id="EL_250"
            route="EL"/>
   <vehicle depart="32110.2936" departLane="best" departSpeed="desired" id="EL_251"
            route="EL"/>
   <vehicle depart="32116.2936" departLane="best" departSpeed="desired" id="EL_252"
            route="EL"/>
   <vehicle depart="32192.2936" departLane="best" departSpeed="desired" id="EL_253"
            route="EL"/>
   <vehicle depart="32198.2936" departLane="best" departSpeed="desired" id="EL_254"
            route="EL"/>
   <vehicle depart="32206.2936" departLane="best" departSpeed="desired" id="EL_255"
            route="EL"/>
   <vehicle depart="32217.2936" departLane="best" departSpeed="desired" id="EL_256"
            route="EL"/>
   <vehicle depart="32312.2936" departLane="best" departSpeed="desired" id="EL_257"
            route="EL"/>
   <vehicle depart="32321.2936" departLane="best" departSpeed="desired" id="EL_258"
            route="EL"/>
   <vehicle depart="32384.2936" departLane="best" departSpeed="desired" id="EL_259"
            route="EL"/>
   <vehicle depart="32390.2936" departLane="best" departSpeed="desired" id="EL_260"
            route="EL"/>
   <vehicle depart="32391.2936" departLane="best" departSpeed="desired" id="EL_261"
            route="EL"/>
   <vehicle depart="32431.2936" departLane="best" departSpeed="desired" id="EL_262"
            route="EL"/>
   <vehicle depart="32437.2936" departLane="best" departSpeed="desired" id="EL_263"
            route="EL"/>
   <vehicle depart="32478.2936" departLane="best" departSpeed="desired" id="EL_264"
            route="EL"/>
   <vehicle depart="32483.2936" departLane="best" departSpeed="desired" id="EL_265"
            route="EL"/>
   <vehicle depart="32493.2936" departLane="best" departSpeed="desired" id="EL_266"
            route="EL"/>
   <vehicle depart="32556.2936" departLane="best" departSpeed="desired" id="EL_267"
            route="EL"/>
   <vehicle depart="32563.2936" departLane="best" departSpeed="desired" id="EL_268"
            route="EL"/>
   <vehicle depart="32572.2936" departLane="best" departSpeed="desired" id="EL_269"
            route="EL"/>
   <vehicle depart="32595.2936" departLane="best" departSpeed="desired" id="EL_270"
            route="EL"/>
   <vehicle depart="32608.2936" departLane="best" departSpeed="desired" id="EL_271"
            route="EL"/>
   <vehicle depart="32633.2936" departLane="best" departSpeed="desired" id="EL_272"
            route="EL"/>
   <vehicle depart="32635.2936" departLane="best" departSpeed="desired" id="EL_273"
            route="EL"/>
   <vehicle depart="32727.2936" departLane="best" departSpeed="desired" id="EL_274"
            route="EL"/>
   <vehicle depart="32734.2936" departLane="best" departSpeed="desired" id="EL_275"
            route="EL"/>
   <vehicle depart="32763.2936" departLane="best" departSpeed="desired" id="EL_276"
            route="EL"/>