<?xml version="1.0" encoding="utf-8"?>
<routes>
   <route edges="West2 West3" id="WT3"/>
   <vehicle depart="410.4387" departLane="best" departSPeed="desired" id="WT_1" route="WT3"/>
   <vehicle depart="672.4387" departLane="best" departSPeed="desired" id="WT_2" route="WT3"/>
   <vehicle depart="833.4387" departLane="best" departSPeed="desired" id="WT_3" route="WT3"/>
   <vehicle depart="842.4387" departLane="best" departSPeed="desired" id="WT_4" route="WT3"/>
   <vehicle depart="1111.4387" departLane="best" departSPeed="desired" id="WT_5" route="WT3"/>
   <vehicle depart="1131.4387" departLane="best" departSPeed="desired" id="WT_6" route="WT3"/>
   <vehicle depart="1136.4387" departLane="best" departSPeed="desired" id="WT_7" route="WT3"/>
   <vehicle depart="1139.4387" departLane="best" departSPeed="desired" id="WT_8" route="WT3"/>
   <vehicle depart="1423.4387" departLane="best" departSPeed="desired" id="WT_9" route="WT3"/>
   <vehicle depart="1503.4387" departLane="best" departSPeed="desired" id="WT_10"
            route="WT3"/>
   <vehicle depart="2134.4387" departLane="best" departSPeed="desired" id="WT_11"
            route="WT3"/>
   <vehicle depart="2172.4387" departLane="best" departSPeed="desired" id="WT_12"
            route="WT3"/>
   <vehicle depart="2186.4387" departLane="best" departSPeed="desired" id="WT_13"
            route="WT3"/>
   <vehicle depart="2246.4387" departLane="best" departSPeed="desired" id="WT_14"
            route="WT3"/>
   <vehicle depart="2417.4387" departLane="best" departSPeed="desired" id="WT_15"
            route="WT3"/>
   <vehicle depart="2897.4387" departLane="best" departSPeed="desired" id="WT_16"
            route="WT3"/>
   <vehicle depart="3058.4387" departLane="best" departSPeed="desired" id="WT_17"
            route="WT3"/>
   <vehicle depart="3123.4387" departLane="best" departSPeed="desired" id="WT_18"
            route="WT3"/>
   <vehicle depart="3125.4387" departLane="best" departSPeed="desired" id="WT_19"
            route="WT3"/>
   <vehicle depart="3155.4387" departLane="best" departSPeed="desired" id="WT_20"
            route="WT3"/>
   <vehicle depart="3238.4387" departLane="best" departSPeed="desired" id="WT_21"
            route="WT3"/>
   <vehicle depart="3246.4387" departLane="best" departSPeed="desired" id="WT_22"
            route="WT3"/>
   <vehicle depart="3787.4387" departLane="best" departSPeed="desired" id="WT_23"
            route="WT3"/>
   <vehicle depart="3844.4387" departLane="best" departSPeed="desired" id="WT_24"
            route="WT3"/>
   <vehicle depart="3889.4387" departLane="best" departSPeed="desired" id="WT_25"
            route="WT3"/>
   <vehicle depart="3976.4387" departLane="best" departSPeed="desired" id="WT_26"
            route="WT3"/>
   <vehicle depart="4009.4387" departLane="best" departSPeed="desired" id="WT_27"
            route="WT3"/>
   <vehicle depart="4017.4387" departLane="best" departSPeed="desired" id="WT_28"
            route="WT3"/>
   <vehicle depart="4076.4387" departLane="best" departSPeed="desired" id="WT_29"
            route="WT3"/>
   <vehicle depart="4716.4387" departLane="best" departSPeed="desired" id="WT_30"
            route="WT3"/>
   <vehicle depart="5220.4387" departLane="best" departSPeed="desired" id="WT_31"
            route="WT3"/>
   <vehicle depart="5293.4387" departLane="best" departSPeed="desired" id="WT_32"
            route="WT3"/>
   <vehicle depart="5316.4387" departLane="best" departSPeed="desired" id="WT_33"
            route="WT3"/>
   <vehicle depart="5342.4387" departLane="best" departSPeed="desired" id="WT_34"
            route="WT3"/>
   <vehicle depart="5368.4387" departLane="best" departSPeed="desired" id="WT_35"
            route="WT3"/>
   <vehicle depart="5373.4387" departLane="best" departSPeed="desired" id="WT_36"
            route="WT3"/>
   <vehicle depart="5477.4387" departLane="best" departSPeed="desired" id="WT_37"
            route="WT3"/>
   <vehicle depart="5598.4387" departLane="best" departSPeed="desired" id="WT_38"
            route="WT3"/>
   <vehicle depart="6105.4387" departLane="best" departSPeed="desired" id="WT_39"
            route="WT3"/>
   <vehicle depart="6583.4387" departLane="best" departSPeed="desired" id="WT_40"
            route="WT3"/>
   <vehicle depart="6744.4387" departLane="best" departSPeed="desired" id="WT_41"
            route="WT3"/>
   <vehicle depart="7694.4387" departLane="best" departSPeed="desired" id="WT_42"
            route="WT3"/>
   <vehicle depart="7743.4387" departLane="best" departSPeed="desired" id="WT_43"
            route="WT3"/>
   <vehicle depart="7777.4387" departLane="best" departSPeed="desired" id="WT_44"
            route="WT3"/>
   <vehicle depart="8095.4387" departLane="best" departSPeed="desired" id="WT_45"
            route="WT3"/>
   <vehicle depart="8196.4387" departLane="best" departSPeed="desired" id="WT_46"
            route="WT3"/>
   <vehicle depart="8805.4387" departLane="best" departSPeed="desired" id="WT_47"
            route="WT3"/>
   <vehicle depart="9123.4387" departLane="best" departSPeed="desired" id="WT_48"
            route="WT3"/>
   <vehicle depart="10243.4387" departLane="best" departSPeed="desired" id="WT_49"
            route="WT3"/>
   <vehicle depart="10400.4387" departLane="best" departSPeed="desired" id="WT_50"
            route="WT3"/>
   <vehicle depart="12987.4387" departLane="best" departSPeed="desired" id="WT_51"
            route="WT3"/>
   <vehicle depart="13030.4387" departLane="best" departSPeed="desired" id="WT_52"
            route="WT3"/>
   <vehicle depart="13869.4387" departLane="best" departSPeed="desired" id="WT_53"
            route="WT3"/>
   <vehicle depart="13941.4387" departLane="best" departSPeed="desired" id="WT_54"
            route="WT3"/>
   <vehicle depart="14007.4387" departLane="best" departSPeed="desired" id="WT_55"
            route="WT3"/>
   <vehicle depart="14038.4387" departLane="best" departSPeed="desired" id="WT_56"
            route="WT3"/>
   <vehicle depart="14918.4387" departLane="best" departSPeed="desired" id="WT_57"
            route="WT3"/>
   <vehicle depart="14919.4387" departLane="best" departSPeed="desired" id="WT_58"
            route="WT3"/>
   <vehicle depart="14927.4387" departLane="best" departSPeed="desired" id="WT_59"
            route="WT3"/>
   <vehicle depart="14983.4387" departLane="best" departSPeed="desired" id="WT_60"
            route="WT3"/>
   <vehicle depart="15709.4387" departLane="best" departSPeed="desired" id="WT_61"
            route="WT3"/>
   <vehicle depart="15904.4387" departLane="best" departSPeed="desired" id="WT_62"
            route="WT3"/>
   <vehicle depart="16392.4387" departLane="best" departSPeed="desired" id="WT_63"
            route="WT3"/>
   <vehicle depart="16631.4387" departLane="best" departSPeed="desired" id="WT_64"
            route="WT3"/>
   <vehicle depart="16699.4387" departLane="best" departSPeed="desired" id="WT_65"
            route="WT3"/>
   <vehicle depart="16872.4387" departLane="best" departSPeed="desired" id="WT_66"
            route="WT3"/>
   <vehicle depart="17205.4387" departLane="best" departSPeed="desired" id="WT_67"
            route="WT3"/>
   <vehicle depart="17326.4387" departLane="best" departSPeed="desired" id="WT_68"
            route="WT3"/>
   <vehicle depart="17378.4387" departLane="best" departSPeed="desired" id="WT_69"
            route="WT3"/>
   <vehicle depart="17393.4387" departLane="best" departSPeed="desired" id="WT_70"
            route="WT3"/>
   <vehicle depart="18011.4387" departLane="best" departSPeed="desired" id="WT_71"
            route="WT3"/>
   <vehicle depart="18097.4387" departLane="best" departSPeed="desired" id="WT_72"
            route="WT3"/>
   <vehicle depart="18146.4387" departLane="best" departSPeed="desired" id="WT_73"
            route="WT3"/>
   <vehicle depart="18185.4387" departLane="best" departSPeed="desired" id="WT_74"
            route="WT3"/>
   <vehicle depart="18198.4387" departLane="best" departSPeed="desired" id="WT_75"
            route="WT3"/>
   <vehicle depart="18231.4387" departLane="best" departSPeed="desired" id="WT_76"
            route="WT3"/>
   <vehicle depart="18269.4387" departLane="best" departSPeed="desired" id="WT_77"
            route="WT3"/>
   <vehicle depart="18355.4387" departLane="best" departSPeed="desired" id="WT_78"
            route="WT3"/>
   <vehicle depart="18409.4387" departLane="best" departSPeed="desired" id="WT_79"
            route="WT3"/>
   <vehicle depart="18768.4387" departLane="best" departSPeed="desired" id="WT_80"
            route="WT3"/>
   <vehicle depart="18806.4387" departLane="best" departSPeed="desired" id="WT_81"
            route="WT3"/>
   <vehicle depart="18948.4387" departLane="best" departSPeed="desired" id="WT_82"
            route="WT3"/>
   <vehicle depart="19077.4387" departLane="best" departSPeed="desired" id="WT_83"
            route="WT3"/>
   <vehicle depart="19085.4387" departLane="best" departSPeed="desired" id="WT_84"
            route="WT3"/>
   <vehicle depart="19108.4387" departLane="best" departSPeed="desired" id="WT_85"
            route="WT3"/>
   <vehicle depart="19150.4387" departLane="best" departSPeed="desired" id="WT_86"
            route="WT3"/>
   <vehicle depart="19160.4387" departLane="best" departSPeed="desired" id="WT_87"
            route="WT3"/>
   <vehicle depart="19221.4387" departLane="best" departSPeed="desired" id="WT_88"
            route="WT3"/>
   <vehicle depart="19221.4387" departLane="best" departSPeed="desired" id="WT_89"
            route="WT3"/>
   <vehicle depart="19333.4387" departLane="best" departSPeed="desired" id="WT_90"
            route="WT3"/>
   <vehicle depart="19535.4387" departLane="best" departSPeed="desired" id="WT_91"
            route="WT3"/>
   <vehicle depart="19550.4387" departLane="best" departSPeed="desired" id="WT_92"
            route="WT3"/>
   <vehicle depart="19794.4387" departLane="best" departSPeed="desired" id="WT_93"
            route="WT3"/>
   <vehicle depart="19801.4387" departLane="best" departSPeed="desired" id="WT_94"
            route="WT3"/>
   <vehicle depart="19838.4387" departLane="best" departSPeed="desired" id="WT_95"
            route="WT3"/>
   <vehicle depart="19866.4387" departLane="best" departSPeed="desired" id="WT_96"
            route="WT3"/>
   <vehicle depart="19867.4387" departLane="best" departSPeed="desired" id="WT_97"
            route="WT3"/>
   <vehicle depart="19935.4387" departLane="best" departSPeed="desired" id="WT_98"
            route="WT3"/>
   <vehicle depart="19939.4387" departLane="best" departSPeed="desired" id="WT_99"
            route="WT3"/>
   <vehicle depart="19959.4387" departLane="best" departSPeed="desired" id="WT_100"
            route="WT3"/>
   <vehicle depart="19968.4387" departLane="best" departSPeed="desired" id="WT_101"
            route="WT3"/>
   <vehicle depart="19997.4387" departLane="best" departSPeed="desired" id="WT_102"
            route="WT3"/>
   <vehicle depart="20004.4387" departLane="best" departSPeed="desired" id="WT_103"
            route="WT3"/>
   <vehicle depart="20040.4387" departLane="best" departSPeed="desired" id="WT_104"
            route="WT3"/>
   <vehicle depart="20041.4387" departLane="best" departSPeed="desired" id="WT_105"
            route="WT3"/>
   <vehicle depart="20042.4387" departLane="best" departSPeed="desired" id="WT_106"
            route="WT3"/>
   <vehicle depart="20046.4387" departLane="best" departSPeed="desired" id="WT_107"
            route="WT3"/>
   <vehicle depart="20090.4387" departLane="best" departSPeed="desired" id="WT_108"
            route="WT3"/>
   <vehicle depart="20093.4387" departLane="best" departSPeed="desired" id="WT_109"
            route="WT3"/>
   <vehicle depart="20101.4387" departLane="best" departSPeed="desired" id="WT_110"
            route="WT3"/>
   <vehicle depart="20121.4387" departLane="best" departSPeed="desired" id="WT_111"
            route="WT3"/>
   <vehicle depart="20127.4387" departLane="best" departSPeed="desired" id="WT_112"
            route="WT3"/>
   <vehicle depart="20290.4387" departLane="best" departSPeed="desired" id="WT_113"
            route="WT3"/>
   <vehicle depart="20323.4387" departLane="best" departSPeed="desired" id="WT_114"
            route="WT3"/>
   <vehicle depart="20339.4387" departLane="best" departSPeed="desired" id="WT_115"
            route="WT3"/>
   <vehicle depart="20352.4387" departLane="best" departSPeed="desired" id="WT_116"
            route="WT3"/>
   <vehicle depart="20409.4387" departLane="best" departSPeed="desired" id="WT_117"
            route="WT3"/>
   <vehicle depart="20435.4387" departLane="best" departSPeed="desired" id="WT_118"
            route="WT3"/>
   <vehicle depart="20443.4387" departLane="best" departSPeed="desired" id="WT_119"
            route="WT3"/>
   <vehicle depart="20469.4387" departLane="best" departSPeed="desired" id="WT_120"
            route="WT3"/>
   <vehicle depart="20482.4387" departLane="best" departSPeed="desired" id="WT_121"
            route="WT3"/>
   <vehicle depart="20639.4387" departLane="best" departSPeed="desired" id="WT_122"
            route="WT3"/>
   <vehicle depart="20709.4387" departLane="best" departSPeed="desired" id="WT_123"
            route="WT3"/>
   <vehicle depart="20710.4387" departLane="best" departSPeed="desired" id="WT_124"
            route="WT3"/>
   <vehicle depart="20711.4387" departLane="best" departSPeed="desired" id="WT_125"
            route="WT3"/>
   <vehicle depart="20725.4387" departLane="best" departSPeed="desired" id="WT_126"
            route="WT3"/>
   <vehicle depart="20894.4387" departLane="best" departSPeed="desired" id="WT_127"
            route="WT3"/>
   <vehicle depart="21046.4387" departLane="best" departSPeed="desired" id="WT_128"
            route="WT3"/>
   <vehicle depart="21067.4387" departLane="best" departSPeed="desired" id="WT_129"
            route="WT3"/>
   <vehicle depart="21183.4387" departLane="best" departSPeed="desired" id="WT_130"
            route="WT3"/>
   <vehicle depart="21226.4387" departLane="best" departSPeed="desired" id="WT_131"
            route="WT3"/>
   <vehicle depart="21252.4387" departLane="best" departSPeed="desired" id="WT_132"
            route="WT3"/>
   <vehicle depart="21284.4387" departLane="best" departSPeed="desired" id="WT_133"
            route="WT3"/>
   <vehicle depart="21412.4387" departLane="best" departSPeed="desired" id="WT_134"
            route="WT3"/>
   <vehicle depart="21453.4387" departLane="best" departSPeed="desired" id="WT_135"
            route="WT3"/>
   <vehicle depart="21526.4387" departLane="best" departSPeed="desired" id="WT_136"
            route="WT3"/>
   <vehicle depart="21548.4387" departLane="best" departSPeed="desired" id="WT_137"
            route="WT3"/>
   <vehicle depart="21562.4387" departLane="best" departSPeed="desired" id="WT_138"
            route="WT3"/>
   <vehicle depart="21594.4387" departLane="best" departSPeed="desired" id="WT_139"
            route="WT3"/>
   <vehicle depart="21622.4387" departLane="best" departSPeed="desired" id="WT_140"
            route="WT3"/>
   <vehicle depart="21631.4387" departLane="best" departSPeed="desired" id="WT_141"
            route="WT3"/>
   <vehicle depart="21633.4387" departLane="best" departSPeed="desired" id="WT_142"
            route="WT3"/>
   <vehicle depart="21677.4387" departLane="best" departSPeed="desired" id="WT_143"
            route="WT3"/>
   <vehicle depart="21715.4387" departLane="best" departSPeed="desired" id="WT_144"
            route="WT3"/>
   <vehicle depart="21930.4387" departLane="best" departSPeed="desired" id="WT_145"
            route="WT3"/>
   <vehicle depart="21934.4387" departLane="best" departSPeed="desired" id="WT_146"
            route="WT3"/>
   <vehicle depart="21979.4387" departLane="best" departSPeed="desired" id="WT_147"
            route="WT3"/>
   <vehicle depart="21986.4387" departLane="best" departSPeed="desired" id="WT_148"
            route="WT3"/>
   <vehicle depart="21987.4387" departLane="best" departSPeed="desired" id="WT_149"
            route="WT3"/>
   <vehicle depart="21997.4387" departLane="best" departSPeed="desired" id="WT_150"
            route="WT3"/>
   <vehicle depart="22000.4387" departLane="best" departSPeed="desired" id="WT_151"
            route="WT3"/>
   <vehicle depart="22001.4387" departLane="best" departSPeed="desired" id="WT_152"
            route="WT3"/>
   <vehicle depart="22009.4387" departLane="best" departSPeed="desired" id="WT_153"
            route="WT3"/>
   <vehicle depart="22016.4387" departLane="best" departSPeed="desired" id="WT_154"
            route="WT3"/>
   <vehicle depart="22031.4387" departLane="best" departSPeed="desired" id="WT_155"
            route="WT3"/>
   <vehicle depart="22108.4387" departLane="best" departSPeed="desired" id="WT_156"
            route="WT3"/>
   <vehicle depart="22113.4387" departLane="best" departSPeed="desired" id="WT_157"
            route="WT3"/>
   <vehicle depart="22135.4387" departLane="best" departSPeed="desired" id="WT_158"
            route="WT3"/>
   <vehicle depart="22143.4387" departLane="best" departSPeed="desired" id="WT_159"
            route="WT3"/>
   <vehicle depart="22234.4387" departLane="best" departSPeed="desired" id="WT_160"
            route="WT3"/>
   <vehicle depart="22250.4387" departLane="best" departSPeed="desired" id="WT_161"
            route="WT3"/>
   <vehicle depart="22251.4387" departLane="best" departSPeed="desired" id="WT_162"
            route="WT3"/>
   <vehicle depart="22269.4387" departLane="best" departSPeed="desired" id="WT_163"
            route="WT3"/>
   <vehicle depart="22297.4387" departLane="best" departSPeed="desired" id="WT_164"
            route="WT3"/>
   <vehicle depart="22300.4387" departLane="best" departSPeed="desired" id="WT_165"
            route="WT3"/>
   <vehicle depart="22368.4387" departLane="best" departSPeed="desired" id="WT_166"
            route="WT3"/>
   <vehicle depart="22407.4387" departLane="best" departSPeed="desired" id="WT_167"
            route="WT3"/>
   <vehicle depart="22415.4387" departLane="best" departSPeed="desired" id="WT_168"
            route="WT3"/>
   <vehicle depart="22443.4387" departLane="best" departSPeed="desired" id="WT_169"
            route="WT3"/>
   <vehicle depart="22534.4387" departLane="best" departSPeed="desired" id="WT_170"
            route="WT3"/>
   <vehicle depart="22540.4387" departLane="best" departSPeed="desired" id="WT_171"
            route="WT3"/>
   <vehicle depart="22544.4387" departLane="best" departSPeed="desired" id="WT_172"
            route="WT3"/>
   <vehicle depart="22570.4387" departLane="best" departSPeed="desired" id="WT_173"
            route="WT3"/>
   <vehicle depart="22582.4387" departLane="best" departSPeed="desired" id="WT_174"
            route="WT3"/>
   <vehicle depart="22589.4387" departLane="best" departSPeed="desired" id="WT_175"
            route="WT3"/>
   <vehicle depart="22602.4387" departLane="best" departSPeed="desired" id="WT_176"
            route="WT3"/>
   <vehicle depart="22607.4387" departLane="best" departSPeed="desired" id="WT_177"
            route="WT3"/>
   <vehicle depart="22610.4387" departLane="best" departSPeed="desired" id="WT_178"
            route="WT3"/>
   <vehicle depart="22611.4387" departLane="best" departSPeed="desired" id="WT_179"
            route="WT3"/>
   <vehicle depart="22615.4387" departLane="best" departSPeed="desired" id="WT_180"
            route="WT3"/>
   <vehicle depart="22617.4387" departLane="best" departSPeed="desired" id="WT_181"
            route="WT3"/>
   <vehicle depart="22626.4387" departLane="best" departSPeed="desired" id="WT_182"
            route="WT3"/>
   <vehicle depart="22632.4387" departLane="best" departSPeed="desired" id="WT_183"
            route="WT3"/>
   <vehicle depart="22636.4387" departLane="best" departSPeed="desired" id="WT_184"
            route="WT3"/>
   <vehicle depart="22637.4387" departLane="best" departSPeed="desired" id="WT_185"
            route="WT3"/>
   <vehicle depart="22639.4387" departLane="best" departSPeed="desired" id="WT_186"
            route="WT3"/>
   <vehicle depart="22646.4387" departLane="best" departSPeed="desired" id="WT_187"
            route="WT3"/>
   <vehicle depart="22659.4387" departLane="best" departSPeed="desired" id="WT_188"
            route="WT3"/>
   <vehicle depart="22719.4387" departLane="best" departSPeed="desired" id="WT_189"
            route="WT3"/>
   <vehicle depart="22748.4387" departLane="best" departSPeed="desired" id="WT_190"
            route="WT3"/>
   <vehicle depart="22756.4387" departLane="best" departSPeed="desired" id="WT_191"
            route="WT3"/>
   <vehicle depart="22825.4387" departLane="best" departSPeed="desired" id="WT_192"
            route="WT3"/>
   <vehicle depart="22829.4387" departLane="best" departSPeed="desired" id="WT_193"
            route="WT3"/>
   <vehicle depart="22838.4387" departLane="best" departSPeed="desired" id="WT_194"
            route="WT3"/>
   <vehicle depart="22860.4387" departLane="best" departSPeed="desired" id="WT_195"
            route="WT3"/>
   <vehicle depart="22899.4387" departLane="best" departSPeed="desired" id="WT_196"
            route="WT3"/>
   <vehicle depart="22939.4387" departLane="best" departSPeed="desired" id="WT_197"
            route="WT3"/>
   <vehicle depart="22941.4387" departLane="best" departSPeed="desired" id="WT_198"
            route="WT3"/>
   <vehicle depart="22944.4387" departLane="best" departSPeed="desired" id="WT_199"
            route="WT3"/>
   <vehicle depart="22963.4387" departLane="best" departSPeed="desired" id="WT_200"
            route="WT3"/>
   <vehicle depart="22970.4387" departLane="best" departSPeed="desired" id="WT_201"
            route="WT3"/>
   <vehicle depart="22981.4387" departLane="best" departSPeed="desired" id="WT_202"
            route="WT3"/>
   <vehicle depart="22985.4387" departLane="best" departSPeed="desired" id="WT_203"
            route="WT3"/>
   <vehicle depart="22987.4387" departLane="best" departSPeed="desired" id="WT_204"
            route="WT3"/>
   <vehicle depart="22989.4387" departLane="best" departSPeed="desired" id="WT_205"
            route="WT3"/>
   <vehicle depart="22999.4387" departLane="best" departSPeed="desired" id="WT_206"
            route="WT3"/>
   <vehicle depart="23129.4387" departLane="best" departSPeed="desired" id="WT_207"
            route="WT3"/>
   <vehicle depart="23145.4387" departLane="best" departSPeed="desired" id="WT_208"
            route="WT3"/>
   <vehicle depart="23235.4387" departLane="best" departSPeed="desired" id="WT_209"
            route="WT3"/>
   <vehicle depart="23339.4387" departLane="best" departSPeed="desired" id="WT_210"
            route="WT3"/>
   <vehicle depart="23358.4387" departLane="best" departSPeed="desired" id="WT_211"
            route="WT3"/>
   <vehicle depart="23363.4387" departLane="best" departSPeed="desired" id="WT_212"
            route="WT3"/>
   <vehicle depart="23366.4387" departLane="best" departSPeed="desired" id="WT_213"
            route="WT3"/>
   <vehicle depart="23397.4387" departLane="best" departSPeed="desired" id="WT_214"
            route="WT3"/>
   <vehicle depart="23428.4387" departLane="best" departSPeed="desired" id="WT_215"
            route="WT3"/>
   <vehicle depart="23474.4387" departLane="best" departSPeed="desired" id="WT_216"
            route="WT3"/>
   <vehicle depart="23478.4387" departLane="best" departSPeed="desired" id="WT_217"
            route="WT3"/>
   <vehicle depart="23480.4387" departLane="best" departSPeed="desired" id="WT_218"
            route="WT3"/>
   <vehicle depart="23481.4387" departLane="best" departSPeed="desired" id="WT_219"
            route="WT3"/>
   <vehicle depart="23503.4387" departLane="best" departSPeed="desired" id="WT_220"
            route="WT3"/>
   <vehicle depart="23504.4387" departLane="best" departSPeed="desired" id="WT_221"
            route="WT3"/>
   <vehicle depart="23547.4387" departLane="best" departSPeed="desired" id="WT_222"
            route="WT3"/>
   <vehicle depart="23559.4387" departLane="best" departSPeed="desired" id="WT_223"
            route="WT3"/>
   <vehicle depart="23564.4387" departLane="best" departSPeed="desired" id="WT_224"
            route="WT3"/>
   <vehicle depart="23587.4387" departLane="best" departSPeed="desired" id="WT_225"
            route="WT3"/>
   <vehicle depart="23591.4387" departLane="best" departSPeed="desired" id="WT_226"
            route="WT3"/>
   <vehicle depart="23596.4387" departLane="best" departSPeed="desired" id="WT_227"
            route="WT3"/>
   <vehicle depart="23597.4387" departLane="best" departSPeed="desired" id="WT_228"
            route="WT3"/>
   <vehicle depart="23615.4387" departLane="best" departSPeed="desired" id="WT_229"
            route="WT3"/>
   <vehicle depart="23623.4387" departLane="best" departSPeed="desired" id="WT_230"
            route="WT3"/>
   <vehicle depart="23624.4387" departLane="best" departSPeed="desired" id="WT_231"
            route="WT3"/>
   <vehicle depart="23630.4387" departLane="best" departSPeed="desired" id="WT_232"
            route="WT3"/>
   <vehicle depart="23666.4387" departLane="best" departSPeed="desired" id="WT_233"
            route="WT3"/>
   <vehicle depart="23687.4387" departLane="best" departSPeed="desired" id="WT_234"
            route="WT3"/>
   <vehicle depart="23709.4387" departLane="best" departSPeed="desired" id="WT_235"
            route="WT3"/>
   <vehicle depart="23725.4387" departLane="best" departSPeed="desired" id="WT_236"
            route="WT3"/>
   <vehicle depart="23725.4387" departLane="best" departSPeed="desired" id="WT_237"
            route="WT3"/>
   <vehicle depart="23726.4387" departLane="best" departSPeed="desired" id="WT_238"
            route="WT3"/>
   <vehicle depart="23740.4387" departLane="best" departSPeed="desired" id="WT_239"
            route="WT3"/>
   <vehicle depart="23830.4387" departLane="best" departSPeed="desired" id="WT_240"
            route="WT3"/>
   <vehicle depart="23888.4387" departLane="best" departSPeed="desired" id="WT_241"
            route="WT3"/>
   <vehicle depart="23908.4387" departLane="best" departSPeed="desired" id="WT_242"
            route="WT3"/>
   <vehicle depart="23916.4387" departLane="best" departSPeed="desired" id="WT_243"
            route="WT3"/>
   <vehicle depart="23928.4387" departLane="best" departSPeed="desired" id="WT_244"
            route="WT3"/>
   <vehicle depart="23944.4387" departLane="best" departSPeed="desired" id="WT_245"
            route="WT3"/>
   <vehicle depart="23972.4387" departLane="best" departSPeed="desired" id="WT_246"
            route="WT3"/>
   <vehicle depart="24015.4387" departLane="best" departSPeed="desired" id="WT_247"
            route="WT3"/>
   <vehicle depart="24022.4387" departLane="best" departSPeed="desired" id="WT_248"
            route="WT3"/>
   <vehicle depart="24036.4387" departLane="best" departSPeed="desired" id="WT_249"
            route="WT3"/>
   <vehicle depart="24040.4387" departLane="best" departSPeed="desired" id="WT_250"
            route="WT3"/>
   <vehicle depart="24053.4387" departLane="best" departSPeed="desired" id="WT_251"
            route="WT3"/>
   <vehicle depart="24057.4387" departLane="best" departSPeed="desired" id="WT_252"
            route="WT3"/>
   <vehicle depart="24057.4387" departLane="best" departSPeed="desired" id="WT_253"
            route="WT3"/>
   <vehicle depart="24058.4387" departLane="best" departSPeed="desired" id="WT_254"
            route="WT3"/>
   <vehicle depart="24098.4387" departLane="best" departSPeed="desired" id="WT_255"
            route="WT3"/>
   <vehicle depart="24111.4387" departLane="best" departSPeed="desired" id="WT_256"
            route="WT3"/>
   <vehicle depart="24145.4387" departLane="best" departSPeed="desired" id="WT_257"
            route="WT3"/>
   <vehicle depart="24149.4387" departLane="best" departSPeed="desired" id="WT_258"
            route="WT3"/>
   <vehicle depart="24167.4387" departLane="best" departSPeed="desired" id="WT_259"
            route="WT3"/>
   <vehicle depart="24207.4387" departLane="best" departSPeed="desired" id="WT_260"
            route="WT3"/>
   <vehicle depart="24253.4387" departLane="best" departSPeed="desired" id="WT_261"
            route="WT3"/>
   <vehicle depart="24262.4387" departLane="best" departSPeed="desired" id="WT_262"
            route="WT3"/>
   <vehicle depart="24339.4387" departLane="best" departSPeed="desired" id="WT_263"
            route="WT3"/>
   <vehicle depart="24366.4387" departLane="best" departSPeed="desired" id="WT_264"
            route="WT3"/>
   <vehicle depart="24367.4387" departLane="best" departSPeed="desired" id="WT_265"
            route="WT3"/>
   <vehicle depart="24369.4387" departLane="best" departSPeed="desired" id="WT_266"
            route="WT3"/>
   <vehicle depart="24372.4387" departLane="best" departSPeed="desired" id="WT_267"
            route="WT3"/>
   <vehicle depart="24403.4387" departLane="best" departSPeed="desired" id="WT_268"
            route="WT3"/>
   <vehicle depart="24407.4387" departLane="best" departSPeed="desired" id="WT_269"
            route="WT3"/>
   <vehicle depart="24412.4387" departLane="best" departSPeed="desired" id="WT_270"
            route="WT3"/>
   <vehicle depart="24416.4387" departLane="best" departSPeed="desired" id="WT_271"
            route="WT3"/>
   <vehicle depart="24424.4387" departLane="best" departSPeed="desired" id="WT_272"
            route="WT3"/>
   <vehicle depart="24426.4387" departLane="best" departSPeed="desired" id="WT_273"
            route="WT3"/>
   <vehicle depart="24483.4387" departLane="best" departSPeed="desired" id="WT_274"
            route="WT3"/>