<?xml version="1.0" encoding="utf-8"?>
<routes>
   <route edges="North8 West3" id="NL"/>
   <vehicle depart="8" departLane="best" departSpeed="desired" id="NL_1" route="NL"/>
   <vehicle depart="34.8233" departLane="best" departSpeed="desired" id="NL_2" route="NL"/>
   <vehicle depart="194.8233" departLane="best" departSpeed="desired" id="NL_3" route="NL"/>
   <vehicle depart="244.8233" departLane="best" departSpeed="desired" id="NL_4" route="NL"/>
   <vehicle depart="252.8233" departLane="best" departSpeed="desired" id="NL_5" route="NL"/>
   <vehicle depart="442.8233" departLane="best" departSpeed="desired" id="NL_6" route="NL"/>
   <vehicle depart="614.8233" departLane="best" departSpeed="desired" id="NL_7" route="NL"/>
   <vehicle depart="1114.8233" departLane="best" departSpeed="desired" id="NL_8" route="NL"/>
   <vehicle depart="1406.8233" departLane="best" departSpeed="desired" id="NL_9" route="NL"/>
   <vehicle depart="1573.8233" departLane="best" departSpeed="desired" id="NL_10"
            route="NL"/>
   <vehicle depart="2114.8233" departLane="best" departSpeed="desired" id="NL_11"
            route="NL"/>
   <vehicle depart="2231.8233" departLane="best" departSpeed="desired" id="NL_12"
            route="NL"/>
   <vehicle depart="2303.8233" departLane="best" departSpeed="desired" id="NL_13"
            route="NL"/>
   <vehicle depart="2430.8233" departLane="best" departSpeed="desired" id="NL_14"
            route="NL"/>
   <vehicle depart="3669.8233" departLane="best" departSpeed="desired" id="NL_15"
            route="NL"/>
   <vehicle depart="3697.8233" departLane="best" departSpeed="desired" id="NL_16"
            route="NL"/>
   <vehicle depart="3771.8233" departLane="best" departSpeed="desired" id="NL_17"
            route="NL"/>
   <vehicle depart="3826.8233" departLane="best" departSpeed="desired" id="NL_18"
            route="NL"/>
   <vehicle depart="3927.8233" departLane="best" departSpeed="desired" id="NL_19"
            route="NL"/>
   <vehicle depart="5122.8233" departLane="best" departSpeed="desired" id="NL_20"
            route="NL"/>
   <vehicle depart="5605.8233" departLane="best" departSpeed="desired" id="NL_21"
            route="NL"/>
   <vehicle depart="6716.8233" departLane="best" departSpeed="desired" id="NL_22"
            route="NL"/>
   <vehicle depart="6722.8233" departLane="best" departSpeed="desired" id="NL_23"
            route="NL"/>
   <vehicle depart="10020.8233" departLane="best" departSpeed="desired" id="NL_24"
            route="NL"/>
   <vehicle depart="10401.8233" departLane="best" departSpeed="desired" id="NL_25"
            route="NL"/>
   <vehicle depart="10887.8233" departLane="best" departSpeed="desired" id="NL_26"
            route="NL"/>
   <vehicle depart="11034.8233" departLane="best" departSpeed="desired" id="NL_27"
            route="NL"/>
   <vehicle depart="12580.8233" departLane="best" departSpeed="desired" id="NL_28"
            route="NL"/>
   <vehicle depart="13605.8233" departLane="best" departSpeed="desired" id="NL_29"
            route="NL"/>
   <vehicle depart="14237.8233" departLane="best" departSpeed="desired" id="NL_30"
            route="NL"/>
   <vehicle depart="15021.8233" departLane="best" departSpeed="desired" id="NL_31"
            route="NL"/>
   <vehicle depart="15107.8233" departLane="best" departSpeed="desired" id="NL_32"
            route="NL"/>
   <vehicle depart="15378.8233" departLane="best" departSpeed="desired" id="NL_33"
            route="NL"/>
   <vehicle depart="15498.8233" departLane="best" departSpeed="desired" id="NL_34"
            route="NL"/>
   <vehicle depart="16404.8233" departLane="best" departSpeed="desired" id="NL_35"
            route="NL"/>
   <vehicle depart="16850.8233" departLane="best" departSpeed="desired" id="NL_36"
            route="NL"/>
   <vehicle depart="16892.8233" departLane="best" departSpeed="desired" id="NL_37"
            route="NL"/>
   <vehicle depart="17315.8233" departLane="best" departSpeed="desired" id="NL_38"
            route="NL"/>
   <vehicle depart="17729.8233" departLane="best" departSpeed="desired" id="NL_39"
            route="NL"/>
   <vehicle depart="18103.8233" departLane="best" departSpeed="desired" id="NL_40"
            route="NL"/>
   <vehicle depart="18310.8233" departLane="best" departSpeed="desired" id="NL_41"
            route="NL"/>
   <vehicle depart="18769.8233" departLane="best" departSpeed="desired" id="NL_42"
            route="NL"/>
   <vehicle depart="20269.8233" departLane="best" departSpeed="desired" id="NL_43"
            route="NL"/>
   <vehicle depart="20703.8233" departLane="best" departSpeed="desired" id="NL_44"
            route="NL"/>
   <vehicle depart="20905.8233" departLane="best" departSpeed="desired" id="NL_45"
            route="NL"/>
   <vehicle depart="21144.8233" departLane="best" departSpeed="desired" id="NL_46"
            route="NL"/>
   <vehicle depart="21291.8233" departLane="best" departSpeed="desired" id="NL_47"
            route="NL"/>
   <vehicle depart="21466.8233" departLane="best" departSpeed="desired" id="NL_48"
            route="NL"/>
   <vehicle depart="21558.8233" departLane="best" departSpeed="desired" id="NL_49"
            route="NL"/>
   <vehicle depart="21560.8233" departLane="best" departSpeed="desired" id="NL_50"
            route="NL"/>
   <vehicle depart="21565.8233" departLane="best" departSpeed="desired" id="NL_51"
            route="NL"/>
   <vehicle depart="21684.8233" departLane="best" departSpeed="desired" id="NL_52"
            route="NL"/>
   <vehicle depart="21901.8233" departLane="best" departSpeed="desired" id="NL_53"
            route="NL"/>
   <vehicle depart="21914.8233" departLane="best" departSpeed="desired" id="NL_54"
            route="NL"/>
   <vehicle depart="21962.8233" departLane="best" departSpeed="desired" id="NL_55"
            route="NL"/>
   <vehicle depart="22128.8233" departLane="best" departSpeed="desired" id="NL_56"
            route="NL"/>
   <vehicle depart="22132.8233" departLane="best" departSpeed="desired" id="NL_57"
            route="NL"/>
   <vehicle depart="22609.8233" departLane="best" departSpeed="desired" id="NL_58"
            route="NL"/>
   <vehicle depart="22656.8233" departLane="best" departSpeed="desired" id="NL_59"
            route="NL"/>
   <vehicle depart="22736.8233" departLane="best" departSpeed="desired" id="NL_60"
            route="NL"/>
   <vehicle depart="22747.8233" departLane="best" departSpeed="desired" id="NL_61"
            route="NL"/>
   <vehicle depart="22790.8233" departLane="best" departSpeed="desired" id="NL_62"
            route="NL"/>
   <vehicle depart="22834.8233" departLane="best" departSpeed="desired" id="NL_63"
            route="NL"/>
   <vehicle depart="22937.8233" departLane="best" departSpeed="desired" id="NL_64"
            route="NL"/>
   <vehicle depart="22952.8233" departLane="best" departSpeed="desired" id="NL_65"
            route="NL"/>
   <vehicle depart="22956.8233" departLane="best" departSpeed="desired" id="NL_66"
            route="NL"/>
   <vehicle depart="22991.8233" departLane="best" departSpeed="desired" id="NL_67"
            route="NL"/>
   <vehicle depart="23026.8233" departLane="best" departSpeed="desired" id="NL_68"
            route="NL"/>
   <vehicle depart="23095.8233" departLane="best" departSpeed="desired" id="NL_69"
            route="NL"/>
   <vehicle depart="23197.8233" departLane="best" departSpeed="desired" id="NL_70"
            route="NL"/>
   <vehicle depart="23207.8233" departLane="best" departSpeed="desired" id="NL_71"
            route="NL"/>
   <vehicle depart="23323.8233" departLane="best" departSpeed="desired" id="NL_72"
            route="NL"/>
   <vehicle depart="23324.8233" departLane="best" departSpeed="desired" id="NL_73"
            route="NL"/>
   <vehicle depart="23499.8233" departLane="best" departSpeed="desired" id="NL_74"
            route="NL"/>
   <vehicle depart="23578.8233" departLane="best" departSpeed="desired" id="NL_75"
            route="NL"/>
   <vehicle depart="23588.8233" departLane="best" departSpeed="desired" id="NL_76"
            route="NL"/>
   <vehicle depart="23689.8233" departLane="best" departSpeed="desired" id="NL_77"
            route="NL"/>
   <vehicle depart="23785.8233" departLane="best" departSpeed="desired" id="NL_78"
            route="NL"/>
   <vehicle depart="23802.8233" departLane="best" departSpeed="desired" id="NL_79"
            route="NL"/>
   <vehicle depart="23888.8233" departLane="best" departSpeed="desired" id="NL_80"
            route="NL"/>
   <vehicle depart="23896.8233" departLane="best" departSpeed="desired" id="NL_81"
            route="NL"/>
   <vehicle depart="23899.8233" departLane="best" departSpeed="desired" id="NL_82"
            route="NL"/>
   <vehicle depart="23906.8233" departLane="best" departSpeed="desired" id="NL_83"
            route="NL"/>
   <vehicle depart="23976.8233" departLane="best" departSpeed="desired" id="NL_84"
            route="NL"/>
   <vehicle depart="23981.8233" departLane="best" departSpeed="desired" id="NL_85"
            route="NL"/>
   <vehicle depart="23983.8233" departLane="best" departSpeed="desired" id="NL_86"
            route="NL"/>
   <vehicle depart="23998.8233" departLane="best" departSpeed="desired" id="NL_87"
            route="NL"/>
   <vehicle depart="24007.8233" departLane="best" departSpeed="desired" id="NL_88"
            route="NL"/>
   <vehicle depart="24071.8233" departLane="best" departSpeed="desired" id="NL_89"
            route="NL"/>
   <vehicle depart="24079.8233" departLane="best" departSpeed="desired" id="NL_90"
            route="NL"/>
   <vehicle depart="24091.8233" departLane="best" departSpeed="desired" id="NL_91"
            route="NL"/>
   <vehicle depart="24096.8233" departLane="best" departSpeed="desired" id="NL_92"
            route="NL"/>
   <vehicle depart="24190.8233" departLane="best" departSpeed="desired" id="NL_93"
            route="NL"/>
   <vehicle depart="24271.8233" departLane="best" departSpeed="desired" id="NL_94"
            route="NL"/>
   <vehicle depart="24287.8233" departLane="best" departSpeed="desired" id="NL_95"
            route="NL"/>
   <vehicle depart="24293.8233" departLane="best" departSpeed="desired" id="NL_96"
            route="NL"/>
   <vehicle depart="24295.8233" departLane="best" departSpeed="desired" id="NL_97"
            route="NL"/>
   <vehicle depart="24298.8233" departLane="best" departSpeed="desired" id="NL_98"
            route="NL"/>
   <vehicle depart="24303.8233" departLane="best" departSpeed="desired" id="NL_99"
            route="NL"/>
   <vehicle depart="24304.8233" departLane="best" departSpeed="desired" id="NL_100"
            route="NL"/>
   <vehicle depart="24388.8233" departLane="best" departSpeed="desired" id="NL_101"
            route="NL"/>
   <vehicle depart="24504.8233" departLane="best" departSpeed="desired" id="NL_102"
            route="NL"/>
   <vehicle depart="24586.8233" departLane="best" departSpeed="desired" id="NL_103"
            route="NL"/>
   <vehicle depart="24595.8233" departLane="best" departSpeed="desired" id="NL_104"
            route="NL"/>
   <vehicle depart="24618.8233" departLane="best" departSpeed="desired" id="NL_105"
            route="NL"/>
   <vehicle depart="24681.8233" departLane="best" departSpeed="desired" id="NL_106"
            route="NL"/>
   <vehicle depart="24683.8233" departLane="best" departSpeed="desired" id="NL_107"
            route="NL"/>
   <vehicle depart="24690.8233" departLane="best" departSpeed="desired" id="NL_108"
            route="NL"/>
   <vehicle depart="24690.8233" departLane="best" departSpeed="desired" id="NL_109"
            route="NL"/>
   <vehicle depart="24698.8233" departLane="best" departSpeed="desired" id="NL_110"
            route="NL"/>
   <vehicle depart="24707.8233" departLane="best" departSpeed="desired" id="NL_111"
            route="NL"/>
   <vehicle depart="24712.8233" departLane="best" departSpeed="desired" id="NL_112"
            route="NL"/>
   <vehicle depart="24714.8233" departLane="best" departSpeed="desired" id="NL_113"
            route="NL"/>
   <vehicle depart="24775.8233" departLane="best" departSpeed="desired" id="NL_114"
            route="NL"/>
   <vehicle depart="24790.8233" departLane="best" departSpeed="desired" id="NL_115"
            route="NL"/>
   <vehicle depart="24791.8233" departLane="best" departSpeed="desired" id="NL_116"
            route="NL"/>
   <vehicle depart="24797.8233" departLane="best" departSpeed="desired" id="NL_117"
            route="NL"/>
   <vehicle depart="24823.8233" departLane="best" departSpeed="desired" id="NL_118"
            route="NL"/>
   <vehicle depart="24882.8233" departLane="best" departSpeed="desired" id="NL_119"
            route="NL"/>
   <vehicle depart="24892.8233" departLane="best" departSpeed="desired" id="NL_120"
            route="NL"/>
   <vehicle depart="24896.8233" departLane="best" departSpeed="desired" id="NL_121"
            route="NL"/>
   <vehicle depart="24973.8233" departLane="best" departSpeed="desired" id="NL_122"
            route="NL"/>
   <vehicle depart="24982.8233" departLane="best" departSpeed="desired" id="NL_123"
            route="NL"/>
   <vehicle depart="24996.8233" departLane="best" departSpeed="desired" id="NL_124"
            route="NL"/>
   <vehicle depart="25088.8233" departLane="best" departSpeed="desired" id="NL_125"
            route="NL"/>
   <vehicle depart="25190.8233" departLane="best" departSpeed="desired" id="NL_126"
            route="NL"/>
   <vehicle depart="25196.8233" departLane="best" departSpeed="desired" id="NL_127"
            route="NL"/>
   <vehicle depart="25199.8233" departLane="best" departSpeed="desired" id="NL_128"
            route="NL"/>
   <vehicle depart="25276.8233" departLane="best" departSpeed="desired" id="NL_129"
            route="NL"/>
   <vehicle depart="25279.8233" departLane="best" departSpeed="desired" id="NL_130"
            route="NL"/>
   <vehicle depart="25298.8233" departLane="best" departSpeed="desired" id="NL_131"
            route="NL"/>
   <vehicle depart="25300.8233" departLane="best" departSpeed="desired" id="NL_132"
            route="NL"/>
   <vehicle depart="25311.8233" departLane="best" departSpeed="desired" id="NL_133"
            route="NL"/>
   <vehicle depart="25377.8233" departLane="best" departSpeed="desired" id="NL_134"
            route="NL"/>
   <vehicle depart="25388.8233" departLane="best" departSpeed="desired" id="NL_135"
            route="NL"/>
   <vehicle depart="25403.8233" departLane="best" departSpeed="desired" id="NL_136"
            route="NL"/>
   <vehicle depart="25480.8233" departLane="best" departSpeed="desired" id="NL_137"
            route="NL"/>
   <vehicle depart="25487.8233" departLane="best" departSpeed="desired" id="NL_138"
            route="NL"/>
   <vehicle depart="25495.8233" departLane="best" departSpeed="desired" id="NL_139"
            route="NL"/>
   <vehicle depart="25500.8233" departLane="best" departSpeed="desired" id="NL_140"
            route="NL"/>
   <vehicle depart="25501.8233" departLane="best" departSpeed="desired" id="NL_141"
            route="NL"/>
   <vehicle depart="25504.8233" departLane="best" departSpeed="desired" id="NL_142"
            route="NL"/>
   <vehicle depart="25506.8233" departLane="best" departSpeed="desired" id="NL_143"
            route="NL"/>
   <vehicle depart="25510.8233" departLane="best" departSpeed="desired" id="NL_144"
            route="NL"/>
   <vehicle depart="25513.8233" departLane="best" departSpeed="desired" id="NL_145"
            route="NL"/>
   <vehicle depart="25522.8233" departLane="best" departSpeed="desired" id="NL_146"
            route="NL"/>
   <vehicle depart="25546.8233" departLane="best" departSpeed="desired" id="NL_147"
            route="NL"/>
   <vehicle depart="25587.8233" departLane="best" departSpeed="desired" id="NL_148"
            route="NL"/>
   <vehicle depart="25597.8233" departLane="best" departSpeed="desired" id="NL_149"
            route="NL"/>
   <vehicle depart="25686.8233" departLane="best" departSpeed="desired" id="NL_150"
            route="NL"/>
   <vehicle depart="25688.8233" departLane="best" departSpeed="desired" id="NL_151"
            route="NL"/>
   <vehicle depart="25690.8233" departLane="best" departSpeed="desired" id="NL_152"
            route="NL"/>
   <vehicle depart="25709.8233" departLane="best" departSpeed="desired" id="NL_153"
            route="NL"/>
   <vehicle depart="25780.8233" departLane="best" departSpeed="desired" id="NL_154"
            route="NL"/>
   <vehicle depart="25796.8233" departLane="best" departSpeed="desired" id="NL_155"
            route="NL"/>
   <vehicle depart="25804.8233" departLane="best" departSpeed="desired" id="NL_156"
            route="NL"/>
   <vehicle depart="25805.8233" departLane="best" departSpeed="desired" id="NL_157"
            route="NL"/>
   <vehicle depart="25811.8233" departLane="best" departSpeed="desired" id="NL_158"
            route="NL"/>
   <vehicle depart="25813.8233" departLane="best" departSpeed="desired" id="NL_159"
            route="NL"/>
   <vehicle depart="25815.8233" departLane="best" departSpeed="desired" id="NL_160"
            route="NL"/>
   <vehicle depart="25883.8233" departLane="best" departSpeed="desired" id="NL_161"
            route="NL"/>
   <vehicle depart="25893.8233" departLane="best" departSpeed="desired" id="NL_162"
            route="NL"/>
   <vehicle depart="25978.8233" departLane="best" departSpeed="desired" id="NL_163"
            route="NL"/>
   <vehicle depart="25990.8233" departLane="best" departSpeed="desired" id="NL_164"
            route="NL"/>
   <vehicle depart="25997.8233" departLane="best" departSpeed="desired" id="NL_165"
            route="NL"/>
   <vehicle depart="26003.8233" departLane="best" departSpeed="desired" id="NL_166"
            route="NL"/>
   <vehicle depart="26081.8233" departLane="best" departSpeed="desired" id="NL_167"
            route="NL"/>
   <vehicle depart="26096.8233" departLane="best" departSpeed="desired" id="NL_168"
            route="NL"/>
   <vehicle depart="26096.8233" departLane="best" departSpeed="desired" id="NL_169"
            route="NL"/>
   <vehicle depart="26105.8233" departLane="best" departSpeed="desired" id="NL_170"
            route="NL"/>
   <vehicle depart="26185.8233" departLane="best" departSpeed="desired" id="NL_171"
            route="NL"/>
   <vehicle depart="26186.8233" departLane="best" departSpeed="desired" id="NL_172"
            route="NL"/>
   <vehicle depart="26189.8233" departLane="best" departSpeed="desired" id="NL_173"
            route="NL"/>
   <vehicle depart="26196.8233" departLane="best" departSpeed="desired" id="NL_174"
            route="NL"/>
   <vehicle depart="26198.8233" departLane="best" departSpeed="desired" id="NL_175"
            route="NL"/>
   <vehicle depart="26212.8233" departLane="best" departSpeed="desired" id="NL_176"
            route="NL"/>
   <vehicle depart="26214.8233" departLane="best" departSpeed="desired" id="NL_177"
            route="NL"/>
   <vehicle depart="26218.8233" departLane="best" departSpeed="desired" id="NL_178"
            route="NL"/>
   <vehicle depart="26219.8233" departLane="best" departSpeed="desired" id="NL_179"
            route="NL"/>
   <vehicle depart="26223.8233" departLane="best" departSpeed="desired" id="NL_180"
            route="NL"/>
   <vehicle depart="26223.8233" departLane="best" departSpeed="desired" id="NL_181"
            route="NL"/>
   <vehicle depart="26231.8233" departLane="best" departSpeed="desired" id="NL_182"
            route="NL"/>
   <vehicle depart="26233.8233" departLane="best" departSpeed="desired" id="NL_183"
            route="NL"/>
   <vehicle depart="26284.8233" departLane="best" departSpeed="desired" id="NL_184"
            route="NL"/>
   <vehicle depart="26374.8233" departLane="best" departSpeed="desired" id="NL_185"
            route="NL"/>
   <vehicle depart="26386.8233" departLane="best" departSpeed="desired" id="NL_186"
            route="NL"/>
   <vehicle depart="26400.8233" departLane="best" departSpeed="desired" id="NL_187"
            route="NL"/>
   <vehicle depart="26402.8233" departLane="best" departSpeed="desired" id="NL_188"
            route="NL"/>
   <vehicle depart="26403.8233" departLane="best" departSpeed="desired" id="NL_189"
            route="NL"/>
   <vehicle depart="26480.8233" departLane="best" departSpeed="desired" id="NL_190"
            route="NL"/>
   <vehicle depart="26482.8233" departLane="best" departSpeed="desired" id="NL_191"
            route="NL"/>
   <vehicle depart="26501.8233" departLane="best" departSpeed="desired" id="NL_192"
            route="NL"/>
   <vehicle depart="26505.8233" departLane="best" departSpeed="desired" id="NL_193"
            route="NL"/>
   <vehicle depart="26506.8233" departLane="best" departSpeed="desired" id="NL_194"
            route="NL"/>
   <vehicle depart="26622.8233" departLane="best" departSpeed="desired" id="NL_195"
            route="NL"/>
   <vehicle depart="26683.8233" departLane="best" departSpeed="desired" id="NL_196"
            route="NL"/>
   <vehicle depart="26684.8233" departLane="best" departSpeed="desired" id="NL_197"
            route="NL"/>
   <vehicle depart="26688.8233" departLane="best" departSpeed="desired" id="NL_198"
            route="NL"/>
   <vehicle depart="26689.8233" departLane="best" departSpeed="desired" id="NL_199"
            route="NL"/>
   <vehicle depart="26697.8233" departLane="best" departSpeed="desired" id="NL_200"
            route="NL"/>
   <vehicle depart="26698.8233" departLane="best" departSpeed="desired" id="NL_201"
            route="NL"/>
   <vehicle depart="26704.8233" departLane="best" departSpeed="desired" id="NL_202"
            route="NL"/>
   <vehicle depart="26706.8233" departLane="best" departSpeed="desired" id="NL_203"
            route="NL"/>
   <vehicle depart="26732.8233" departLane="best" departSpeed="desired" id="NL_204"
            route="NL"/>
   <vehicle depart="26734.8233" departLane="best" departSpeed="desired" id="NL_205"
            route="NL"/>
   <vehicle depart="26804.8233" departLane="best" departSpeed="desired" id="NL_206"
            route="NL"/>
   <vehicle depart="26805.8233" departLane="best" departSpeed="desired" id="NL_207"
            route="NL"/>
   <vehicle depart="26810.8233" departLane="best" departSpeed="desired" id="NL_208"
            route="NL"/>
   <vehicle depart="26835.8233" departLane="best" departSpeed="desired" id="NL_209"
            route="NL"/>
   <vehicle depart="26846.8233" departLane="best" departSpeed="desired" id="NL_210"
            route="NL"/>
   <vehicle depart="26874.8233" departLane="best" departSpeed="desired" id="NL_211"
            route="NL"/>
   <vehicle depart="26876.8233" departLane="best" departSpeed="desired" id="NL_212"
            route="NL"/>
   <vehicle depart="26882.8233" departLane="best" departSpeed="desired" id="NL_213"
            route="NL"/>
   <vehicle depart="26899.8233" departLane="best" departSpeed="desired" id="NL_214"
            route="NL"/>
   <vehicle depart="26903.8233" departLane="best" departSpeed="desired" id="NL_215"
            route="NL"/>
   <vehicle depart="26907.8233" departLane="best" departSpeed="desired" id="NL_216"
            route="NL"/>
   <vehicle depart="26978.8233" departLane="best" departSpeed="desired" id="NL_217"
            route="NL"/>
   <vehicle depart="26986.8233" departLane="best" departSpeed="desired" id="NL_218"
            route="NL"/>
   <vehicle depart="26994.8233" departLane="best" departSpeed="desired" id="NL_219"
            route="NL"/>
   <vehicle depart="27002.8233" departLane="best" departSpeed="desired" id="NL_220"
            route="NL"/>
   <vehicle depart="27006.8233" departLane="best" departSpeed="desired" id="NL_221"
            route="NL"/>
   <vehicle depart="27008.8233" departLane="best" departSpeed="desired" id="NL_222"
            route="NL"/>
   <vehicle depart="27014.8233" departLane="best" departSpeed="desired" id="NL_223"
            route="NL"/>
   <vehicle depart="27017.8233" departLane="best" departSpeed="desired" id="NL_224"
            route="NL"/>
   <vehicle depart="27018.8233" departLane="best" departSpeed="desired" id="NL_225"
            route="NL"/>
   <vehicle depart="27024.8233" departLane="best" departSpeed="desired" id="NL_226"
            route="NL"/>
   <vehicle depart="27084.8233" departLane="best" departSpeed="desired" id="NL_227"
            route="NL"/>
   <vehicle depart="27108.8233" departLane="best" departSpeed="desired" id="NL_228"
            route="NL"/>
   <vehicle depart="27109.8233" departLane="best" departSpeed="desired" id="NL_229"
            route="NL"/>
   <vehicle depart="27115.8233" departLane="best" departSpeed="desired" id="NL_230"
            route="NL"/>
   <vehicle depart="27116.8233" departLane="best" departSpeed="desired" id="NL_231"
            route="NL"/>
   <vehicle depart="27120.8233" departLane="best" departSpeed="desired" id="NL_232"
            route="NL"/>
   <vehicle depart="27129.8233" departLane="best" departSpeed="desired" id="NL_233"
            route="NL"/>
   <vehicle depart="27282.8233" departLane="best" departSpeed="desired" id="NL_234"
            route="NL"/>
   <vehicle depart="27283.8233" departLane="best" departSpeed="desired" id="NL_235"
            route="NL"/>
   <vehicle depart="27288.8233" departLane="best" departSpeed="desired" id="NL_236"
            route="NL"/>
   <vehicle depart="27289.8233" departLane="best" departSpeed="desired" id="NL_237"
            route="NL"/>
   <vehicle depart="27291.8233" departLane="best" departSpeed="desired" id="NL_238"
            route="NL"/>
   <vehicle depart="27301.8233" departLane="best" departSpeed="desired" id="NL_239"
            route="NL"/>
   <vehicle depart="27304.8233" departLane="best" departSpeed="desired" id="NL_240"
            route="NL"/>
   <vehicle depart="27313.8233" departLane="best" departSpeed="desired" id="NL_241"
            route="NL"/>
   <vehicle depart="27378.8233" departLane="best" departSpeed="desired" id="NL_242"
            route="NL"/>
   <vehicle depart="27382.8233" departLane="best" departSpeed="desired" id="NL_243"
            route="NL"/>
   <vehicle depart="27388.8233" departLane="best" departSpeed="desired" id="NL_244"
            route="NL"/>
   <vehicle depart="27395.8233" departLane="best" departSpeed="desired" id="NL_245"
            route="NL"/>
   <vehicle depart="27395.8233" departLane="best" departSpeed="desired" id="NL_246"
            route="NL"/>
   <vehicle depart="27398.8233" departLane="best" departSpeed="desired" id="NL_247"
            route="NL"/>
   <vehicle depart="27485.8233" departLane="best" departSpeed="desired" id="NL_248"
            route="NL"/>
   <vehicle depart="27486.8233" departLane="best" departSpeed="desired" id="NL_249"
            route="NL"/>
   <vehicle depart="27499.8233" departLane="best" departSpeed="desired" id="NL_250"
            route="NL"/>
   <vehicle depart="27503.8233" departLane="best" departSpeed="desired" id="NL_251"
            route="NL"/>
   <vehicle depart="27510.8233" departLane="best" departSpeed="desired" id="NL_252"
            route="NL"/>
   <vehicle depart="27515.8233" departLane="best" departSpeed="desired" id="NL_253"
            route="NL"/>
   <vehicle depart="27517.8233" departLane="best" departSpeed="desired" id="NL_254"
            route="NL"/>
   <vehicle depart="27518.8233" departLane="best" departSpeed="desired" id="NL_255"
            route="NL"/>
   <vehicle depart="27520.8233" departLane="best" departSpeed="desired" id="NL_256"
            route="NL"/>
   <vehicle depart="27601.8233" departLane="best" departSpeed="desired" id="NL_257"
            route="NL"/>
   <vehicle depart="27610.8233" departLane="best" departSpeed="desired" id="NL_258"
            route="NL"/>
   <vehicle depart="27675.8233" departLane="best" departSpeed="desired" id="NL_259"
            route="NL"/>
   <vehicle depart="27680.8233" departLane="best" departSpeed="desired" id="NL_260"
            route="NL"/>
   <vehicle depart="27696.8233" departLane="best" departSpeed="desired" id="NL_261"
            route="NL"/>
   <vehicle depart="27697.8233" departLane="best" departSpeed="desired" id="NL_262"
            route="NL"/>
   <vehicle depart="27703.8233" departLane="best" departSpeed="desired" id="NL_263"
            route="NL"/>
   <vehicle depart="27711.8233" departLane="best" departSpeed="desired" id="NL_264"
            route="NL"/>
   <vehicle depart="27746.8233" departLane="best" departSpeed="desired" id="NL_265"
            route="NL"/>
   <vehicle depart="27781.8233" departLane="best" departSpeed="desired" id="NL_266"
            route="NL"/>
   <vehicle depart="27787.8233" departLane="best" departSpeed="desired" id="NL_267"
            route="NL"/>
   <vehicle depart="27806.8233" departLane="best" departSpeed="desired" id="NL_268"
            route="NL"/>
   <vehicle depart="27811.8233" departLane="best" departSpeed="desired" id="NL_269"
            route="NL"/>
   <vehicle depart="27815.8233" departLane="best" departSpeed="desired" id="NL_270"
            route="NL"/>
   <vehicle depart="27896.8233" departLane="best" departSpeed="desired" id="NL_271"
            route="NL"/>
   <vehicle depart="27898.8233" departLane="best" departSpeed="desired" id="NL_272"
            route="NL"/>
   <vehicle depart="27986.8233" departLane="best" departSpeed="desired" id="NL_273"
            route="NL"/>
   <vehicle depart="28001.8233" departLane="best" departSpeed="desired" id="NL_274"
            route="NL"/>
   <vehicle depart="28003.8233" departLane="best" departSpeed="desired" id="NL_275"
            route="NL"/>
   <vehicle depart="28011.8233" departLane="best" departSpeed="desired" id="NL_276"
            route="NL"/>