<?xml version="1.0" encoding="utf-8"?>
<routes>
   <route edges="East18 East19 East20" id="ET1"/>
   <vehicle depart="22.2936" departLane="best" departSpeed="desired" id="ET_1" route="ET1"/>
   <vehicle depart="55.2936" departLane="best" departSpeed="desired" id="ET_2" route="ET1"/>
   <vehicle depart="80.2936" departLane="best" departSpeed="desired" id="ET_3" route="ET1"/>
   <vehicle depart="130.2936" departLane="best" departSpeed="desired" id="ET_4" route="ET1"/>
   <vehicle depart="173.2936" departLane="best" departSpeed="desired" id="ET_5" route="ET1"/>
   <vehicle depart="280.2936" departLane="best" departSpeed="desired" id="ET_6" route="ET1"/>
   <vehicle depart="285.2936" departLane="best" departSpeed="desired" id="ET_7" route="ET1"/>
   <vehicle depart="406.2936" departLane="best" departSpeed="desired" id="ET_8" route="ET1"/>
   <vehicle depart="414.2936" departLane="best" departSpeed="desired" id="ET_9" route="ET1"/>
   <vehicle depart="587.2936" departLane="best" departSpeed="desired" id="ET_10" route="ET1"/>
   <vehicle depart="651.2936" departLane="best" departSpeed="desired" id="ET_11" route="ET1"/>
   <vehicle depart="849.2936" departLane="best" departSpeed="desired" id="ET_12" route="ET1"/>
   <vehicle depart="1043.2936" departLane="best" departSpeed="desired" id="ET_13"
            route="ET1"/>
   <vehicle depart="1103.2936" departLane="best" departSpeed="desired" id="ET_14"
            route="ET1"/>
   <vehicle depart="1164.2936" departLane="best" departSpeed="desired" id="ET_15"
            route="ET1"/>
   <vehicle depart="1294.2936" departLane="best" departSpeed="desired" id="ET_16"
            route="ET1"/>
   <vehicle depart="1339.2936" departLane="best" departSpeed="desired" id="ET_17"
            route="ET1"/>
   <vehicle depart="1654.2936" departLane="best" departSpeed="desired" id="ET_18"
            route="ET1"/>
   <vehicle depart="1658.2936" departLane="best" departSpeed="desired" id="ET_19"
            route="ET1"/>
   <vehicle depart="1691.2936" departLane="best" departSpeed="desired" id="ET_20"
            route="ET1"/>
   <vehicle depart="1738.2936" departLane="best" departSpeed="desired" id="ET_21"
            route="ET1"/>
   <vehicle depart="1969.2936" departLane="best" departSpeed="desired" id="ET_22"
            route="ET1"/>
   <vehicle depart="2039.2936" departLane="best" departSpeed="desired" id="ET_23"
            route="ET1"/>
   <vehicle depart="2131.2936" departLane="best" departSpeed="desired" id="ET_24"
            route="ET1"/>
   <vehicle depart="2698.2936" departLane="best" departSpeed="desired" id="ET_25"
            route="ET1"/>
   <vehicle depart="2726.2936" departLane="best" departSpeed="desired" id="ET_26"
            route="ET1"/>
   <vehicle depart="2835.2936" departLane="best" departSpeed="desired" id="ET_27"
            route="ET1"/>
   <vehicle depart="2926.2936" departLane="best" departSpeed="desired" id="ET_28"
            route="ET1"/>
   <vehicle depart="3137.2936" departLane="best" departSpeed="desired" id="ET_29"
            route="ET1"/>
   <vehicle depart="3168.2936" departLane="best" departSpeed="desired" id="ET_30"
            route="ET1"/>
   <vehicle depart="3235.2936" departLane="best" departSpeed="desired" id="ET_31"
            route="ET1"/>
   <vehicle depart="3384.2936" departLane="best" departSpeed="desired" id="ET_32"
            route="ET1"/>
   <vehicle depart="3547.2936" departLane="best" departSpeed="desired" id="ET_33"
            route="ET1"/>
   <vehicle depart="3555.2936" departLane="best" departSpeed="desired" id="ET_34"
            route="ET1"/>
   <vehicle depart="3661.2936" departLane="best" departSpeed="desired" id="ET_35"
            route="ET1"/>
   <vehicle depart="4028.2936" departLane="best" departSpeed="desired" id="ET_36"
            route="ET1"/>
   <vehicle depart="4055.2936" departLane="best" departSpeed="desired" id="ET_37"
            route="ET1"/>
   <vehicle depart="4877.2936" departLane="best" departSpeed="desired" id="ET_38"
            route="ET1"/>
   <vehicle depart="4903.2936" departLane="best" departSpeed="desired" id="ET_39"
            route="ET1"/>
   <vehicle depart="5041.2936" departLane="best" departSpeed="desired" id="ET_40"
            route="ET1"/>
   <vehicle depart="5234.2936" departLane="best" departSpeed="desired" id="ET_41"
            route="ET1"/>
   <vehicle depart="6036.2936" departLane="best" departSpeed="desired" id="ET_42"
            route="ET1"/>
   <vehicle depart="6116.2936" departLane="best" departSpeed="desired" id="ET_43"
            route="ET1"/>
   <vehicle depart="6141.2936" departLane="best" departSpeed="desired" id="ET_44"
            route="ET1"/>
   <vehicle depart="6274.2936" departLane="best" departSpeed="desired" id="ET_45"
            route="ET1"/>
   <vehicle depart="6450.2936" departLane="best" departSpeed="desired" id="ET_46"
            route="ET1"/>
   <vehicle depart="6451.2936" departLane="best" departSpeed="desired" id="ET_47"
            route="ET1"/>
   <vehicle depart="6451.2936" departLane="best" departSpeed="desired" id="ET_48"
            route="ET1"/>
   <vehicle depart="6661.2936" departLane="best" departSpeed="desired" id="ET_49"
            route="ET1"/>
   <vehicle depart="6735.2936" departLane="best" departSpeed="desired" id="ET_50"
            route="ET1"/>
   <vehicle depart="6948.2936" departLane="best" departSpeed="desired" id="ET_51"
            route="ET1"/>
   <vehicle depart="7185.2936" departLane="best" departSpeed="desired" id="ET_52"
            route="ET1"/>
   <vehicle depart="7188.2936" departLane="best" departSpeed="desired" id="ET_53"
            route="ET1"/>
   <vehicle depart="7190.2936" departLane="best" departSpeed="desired" id="ET_54"
            route="ET1"/>
   <vehicle depart="7251.2936" departLane="best" departSpeed="desired" id="ET_55"
            route="ET1"/>
   <vehicle depart="7267.2936" departLane="best" departSpeed="desired" id="ET_56"
            route="ET1"/>
   <vehicle depart="7540.2936" departLane="best" departSpeed="desired" id="ET_57"
            route="ET1"/>
   <vehicle depart="7790.2936" departLane="best" departSpeed="desired" id="ET_58"
            route="ET1"/>
   <vehicle depart="8015.2936" departLane="best" departSpeed="desired" id="ET_59"
            route="ET1"/>
   <vehicle depart="8205.2936" departLane="best" departSpeed="desired" id="ET_60"
            route="ET1"/>
   <vehicle depart="8256.2936" departLane="best" departSpeed="desired" id="ET_61"
            route="ET1"/>
   <vehicle depart="9179.2936" departLane="best" departSpeed="desired" id="ET_62"
            route="ET1"/>
   <vehicle depart="9209.2936" departLane="best" departSpeed="desired" id="ET_63"
            route="ET1"/>
   <vehicle depart="9273.2936" departLane="best" departSpeed="desired" id="ET_64"
            route="ET1"/>
   <vehicle depart="9519.2936" departLane="best" departSpeed="desired" id="ET_65"
            route="ET1"/>
   <vehicle depart="9527.2936" departLane="best" departSpeed="desired" id="ET_66"
            route="ET1"/>
   <vehicle depart="9539.2936" departLane="best" departSpeed="desired" id="ET_67"
            route="ET1"/>
   <vehicle depart="9809.2936" departLane="best" departSpeed="desired" id="ET_68"
            route="ET1"/>
   <vehicle depart="10199.2936" departLane="best" departSpeed="desired" id="ET_69"
            route="ET1"/>
   <vehicle depart="10416.2936" departLane="best" departSpeed="desired" id="ET_70"
            route="ET1"/>
   <vehicle depart="10907.2936" departLane="best" departSpeed="desired" id="ET_71"
            route="ET1"/>
   <vehicle depart="11955.2936" departLane="best" departSpeed="desired" id="ET_72"
            route="ET1"/>
   <vehicle depart="12056.2936" departLane="best" departSpeed="desired" id="ET_73"
            route="ET1"/>
   <vehicle depart="12244.2936" departLane="best" departSpeed="desired" id="ET_74"
            route="ET1"/>
   <vehicle depart="13344.2936" departLane="best" departSpeed="desired" id="ET_75"
            route="ET1"/>
   <vehicle depart="14013.2936" departLane="best" departSpeed="desired" id="ET_76"
            route="ET1"/>
   <vehicle depart="14308.2936" departLane="best" departSpeed="desired" id="ET_77"
            route="ET1"/>
   <vehicle depart="14424.2936" departLane="best" departSpeed="desired" id="ET_78"
            route="ET1"/>
   <vehicle depart="15011.2936" departLane="best" departSpeed="desired" id="ET_79"
            route="ET1"/>
   <vehicle depart="15307.2936" departLane="best" departSpeed="desired" id="ET_80"
            route="ET1"/>
   <vehicle depart="15776.2936" departLane="best" departSpeed="desired" id="ET_81"
            route="ET1"/>
   <vehicle depart="15874.2936" departLane="best" departSpeed="desired" id="ET_82"
            route="ET1"/>
   <vehicle depart="16199.2936" departLane="best" departSpeed="desired" id="ET_83"
            route="ET1"/>
   <vehicle depart="16321.2936" departLane="best" departSpeed="desired" id="ET_84"
            route="ET1"/>
   <vehicle depart="16385.2936" departLane="best" departSpeed="desired" id="ET_85"
            route="ET1"/>
   <vehicle depart="16500.2936" departLane="best" departSpeed="desired" id="ET_86"
            route="ET1"/>
   <vehicle depart="16858.2936" departLane="best" departSpeed="desired" id="ET_87"
            route="ET1"/>
   <vehicle depart="17003.2936" departLane="best" departSpeed="desired" id="ET_88"
            route="ET1"/>
   <vehicle depart="17280.2936" departLane="best" departSpeed="desired" id="ET_89"
            route="ET1"/>
   <vehicle depart="17306.2936" departLane="best" departSpeed="desired" id="ET_90"
            route="ET1"/>
   <vehicle depart="17356.2936" departLane="best" departSpeed="desired" id="ET_91"
            route="ET1"/>
   <vehicle depart="17590.2936" departLane="best" departSpeed="desired" id="ET_92"
            route="ET1"/>
   <vehicle depart="17771.2936" departLane="best" departSpeed="desired" id="ET_93"
            route="ET1"/>
   <vehicle depart="17822.2936" departLane="best" departSpeed="desired" id="ET_94"
            route="ET1"/>
   <vehicle depart="17879.2936" departLane="best" departSpeed="desired" id="ET_95"
            route="ET1"/>
   <vehicle depart="17887.2936" departLane="best" departSpeed="desired" id="ET_96"
            route="ET1"/>
   <vehicle depart="17919.2936" departLane="best" departSpeed="desired" id="ET_97"
            route="ET1"/>
   <vehicle depart="18002.2936" departLane="best" departSpeed="desired" id="ET_98"
            route="ET1"/>
   <vehicle depart="18294.2936" departLane="best" departSpeed="desired" id="ET_99"
            route="ET1"/>
   <vehicle depart="18377.2936" departLane="best" departSpeed="desired" id="ET_100"
            route="ET1"/>
   <vehicle depart="18572.2936" departLane="best" departSpeed="desired" id="ET_101"
            route="ET1"/>
   <vehicle depart="18894.2936" departLane="best" departSpeed="desired" id="ET_102"
            route="ET1"/>
   <vehicle depart="18925.2936" departLane="best" departSpeed="desired" id="ET_103"
            route="ET1"/>
   <vehicle depart="18982.2936" departLane="best" departSpeed="desired" id="ET_104"
            route="ET1"/>
   <vehicle depart="18996.2936" departLane="best" departSpeed="desired" id="ET_105"
            route="ET1"/>
   <vehicle depart="19160.2936" departLane="best" departSpeed="desired" id="ET_106"
            route="ET1"/>
   <vehicle depart="19188.2936" departLane="best" departSpeed="desired" id="ET_107"
            route="ET1"/>
   <vehicle depart="19210.2936" departLane="best" departSpeed="desired" id="ET_108"
            route="ET1"/>
   <vehicle depart="19323.2936" departLane="best" departSpeed="desired" id="ET_109"
            route="ET1"/>
   <vehicle depart="19329.2936" departLane="best" departSpeed="desired" id="ET_110"
            route="ET1"/>
   <vehicle depart="19440.2936" departLane="best" departSpeed="desired" id="ET_111"
            route="ET1"/>
   <vehicle depart="19587.2936" departLane="best" departSpeed="desired" id="ET_112"
            route="ET1"/>
   <vehicle depart="19598.2936" departLane="best" departSpeed="desired" id="ET_113"
            route="ET1"/>
   <vehicle depart="19676.2936" departLane="best" departSpeed="desired" id="ET_114"
            route="ET1"/>
   <vehicle depart="19726.2936" departLane="best" departSpeed="desired" id="ET_115"
            route="ET1"/>
   <vehicle depart="19944.2936" departLane="best" departSpeed="desired" id="ET_116"
            route="ET1"/>
   <vehicle depart="19969.2936" departLane="best" departSpeed="desired" id="ET_117"
            route="ET1"/>
   <vehicle depart="20078.2936" departLane="best" departSpeed="desired" id="ET_118"
            route="ET1"/>
   <vehicle depart="20105.2936" departLane="best" departSpeed="desired" id="ET_119"
            route="ET1"/>
   <vehicle depart="20113.2936" departLane="best" departSpeed="desired" id="ET_120"
            route="ET1"/>
   <vehicle depart="20153.2936" departLane="best" departSpeed="desired" id="ET_121"
            route="ET1"/>
   <vehicle depart="20429.2936" departLane="best" departSpeed="desired" id="ET_122"
            route="ET1"/>
   <vehicle depart="20474.2936" departLane="best" departSpeed="desired" id="ET_123"
            route="ET1"/>
   <vehicle depart="20550.2936" departLane="best" departSpeed="desired" id="ET_124"
            route="ET1"/>
   <vehicle depart="20580.2936" departLane="best" departSpeed="desired" id="ET_125"
            route="ET1"/>
   <vehicle depart="20651.2936" departLane="best" departSpeed="desired" id="ET_126"
            route="ET1"/>
   <vehicle depart="20670.2936" departLane="best" departSpeed="desired" id="ET_127"
            route="ET1"/>
   <vehicle depart="20742.2936" departLane="best" departSpeed="desired" id="ET_128"
            route="ET1"/>
   <vehicle depart="20770.2936" departLane="best" departSpeed="desired" id="ET_129"
            route="ET1"/>
   <vehicle depart="20841.2936" departLane="best" departSpeed="desired" id="ET_130"
            route="ET1"/>
   <vehicle depart="20855.2936" departLane="best" departSpeed="desired" id="ET_131"
            route="ET1"/>
   <vehicle depart="20907.2936" departLane="best" departSpeed="desired" id="ET_132"
            route="ET1"/>
   <vehicle depart="20962.2936" departLane="best" departSpeed="desired" id="ET_133"
            route="ET1"/>
   <vehicle depart="20970.2936" departLane="best" departSpeed="desired" id="ET_134"
            route="ET1"/>
   <vehicle depart="20987.2936" departLane="best" departSpeed="desired" id="ET_135"
            route="ET1"/>
   <vehicle depart="21004.2936" departLane="best" departSpeed="desired" id="ET_136"
            route="ET1"/>
   <vehicle depart="21052.2936" departLane="best" departSpeed="desired" id="ET_137"
            route="ET1"/>
   <vehicle depart="21072.2936" departLane="best" departSpeed="desired" id="ET_138"
            route="ET1"/>
   <vehicle depart="21093.2936" departLane="best" departSpeed="desired" id="ET_139"
            route="ET1"/>
   <vehicle depart="21276.2936" departLane="best" departSpeed="desired" id="ET_140"
            route="ET1"/>
   <vehicle depart="21279.2936" departLane="best" departSpeed="desired" id="ET_141"
            route="ET1"/>
   <vehicle depart="21280.2936" departLane="best" departSpeed="desired" id="ET_142"
            route="ET1"/>
   <vehicle depart="21395.2936" departLane="best" departSpeed="desired" id="ET_143"
            route="ET1"/>
   <vehicle depart="21468.2936" departLane="best" departSpeed="desired" id="ET_144"
            route="ET1"/>
   <vehicle depart="21518.2936" departLane="best" departSpeed="desired" id="ET_145"
            route="ET1"/>
   <vehicle depart="21531.2936" departLane="best" departSpeed="desired" id="ET_146"
            route="ET1"/>
   <vehicle depart="21548.2936" departLane="best" departSpeed="desired" id="ET_147"
            route="ET1"/>
   <vehicle depart="21553.2936" departLane="best" departSpeed="desired" id="ET_148"
            route="ET1"/>
   <vehicle depart="21562.2936" departLane="best" departSpeed="desired" id="ET_149"
            route="ET1"/>
   <vehicle depart="21682.2936" departLane="best" departSpeed="desired" id="ET_150"
            route="ET1"/>
   <vehicle depart="21739.2936" departLane="best" departSpeed="desired" id="ET_151"
            route="ET1"/>
   <vehicle depart="21801.2936" departLane="best" departSpeed="desired" id="ET_152"
            route="ET1"/>
   <vehicle depart="21802.2936" departLane="best" departSpeed="desired" id="ET_153"
            route="ET1"/>
   <vehicle depart="21848.2936" departLane="best" departSpeed="desired" id="ET_154"
            route="ET1"/>
   <vehicle depart="21938.2936" departLane="best" departSpeed="desired" id="ET_155"
            route="ET1"/>
   <vehicle depart="22024.2936" departLane="best" departSpeed="desired" id="ET_156"
            route="ET1"/>
   <vehicle depart="22055.2936" departLane="best" departSpeed="desired" id="ET_157"
            route="ET1"/>
   <vehicle depart="22132.2936" departLane="best" departSpeed="desired" id="ET_158"
            route="ET1"/>
   <vehicle depart="22226.2936" departLane="best" departSpeed="desired" id="ET_159"
            route="ET1"/>
   <vehicle depart="22239.2936" departLane="best" departSpeed="desired" id="ET_160"
            route="ET1"/>
   <vehicle depart="22331.2936" departLane="best" departSpeed="desired" id="ET_161"
            route="ET1"/>
   <vehicle depart="22344.2936" departLane="best" departSpeed="desired" id="ET_162"
            route="ET1"/>
   <vehicle depart="22355.2936" departLane="best" departSpeed="desired" id="ET_163"
            route="ET1"/>
   <vehicle depart="22368.2936" departLane="best" departSpeed="desired" id="ET_164"
            route="ET1"/>
   <vehicle depart="22373.2936" departLane="best" departSpeed="desired" id="ET_165"
            route="ET1"/>
   <vehicle depart="22563.2936" departLane="best" departSpeed="desired" id="ET_166"
            route="ET1"/>
   <vehicle depart="22580.2936" departLane="best" departSpeed="desired" id="ET_167"
            route="ET1"/>
   <vehicle depart="22638.2936" departLane="best" departSpeed="desired" id="ET_168"
            route="ET1"/>
   <vehicle depart="22664.2936" departLane="best" departSpeed="desired" id="ET_169"
            route="ET1"/>
   <vehicle depart="22721.2936" departLane="best" departSpeed="desired" id="ET_170"
            route="ET1"/>
   <vehicle depart="22731.2936" departLane="best" departSpeed="desired" id="ET_171"
            route="ET1"/>
   <vehicle depart="22736.2936" departLane="best" departSpeed="desired" id="ET_172"
            route="ET1"/>
   <vehicle depart="22741.2936" departLane="best" departSpeed="desired" id="ET_173"
            route="ET1"/>
   <vehicle depart="22752.2936" departLane="best" departSpeed="desired" id="ET_174"
            route="ET1"/>
   <vehicle depart="22853.2936" departLane="best" departSpeed="desired" id="ET_175"
            route="ET1"/>
   <vehicle depart="22865.2936" departLane="best" departSpeed="desired" id="ET_176"
            route="ET1"/>
   <vehicle depart="22883.2936" departLane="best" departSpeed="desired" id="ET_177"
            route="ET1"/>
   <vehicle depart="22895.2936" departLane="best" departSpeed="desired" id="ET_178"
            route="ET1"/>
   <vehicle depart="22947.2936" departLane="best" departSpeed="desired" id="ET_179"
            route="ET1"/>
   <vehicle depart="22981.2936" departLane="best" departSpeed="desired" id="ET_180"
            route="ET1"/>
   <vehicle depart="22984.2936" departLane="best" departSpeed="desired" id="ET_181"
            route="ET1"/>
   <vehicle depart="22991.2936" departLane="best" departSpeed="desired" id="ET_182"
            route="ET1"/>
   <vehicle depart="23003.2936" departLane="best" departSpeed="desired" id="ET_183"
            route="ET1"/>
   <vehicle depart="23033.2936" departLane="best" departSpeed="desired" id="ET_184"
            route="ET1"/>
   <vehicle depart="23037.2936" departLane="best" departSpeed="desired" id="ET_185"
            route="ET1"/>
   <vehicle depart="23042.2936" departLane="best" departSpeed="desired" id="ET_186"
            route="ET1"/>
   <vehicle depart="23045.2936" departLane="best" departSpeed="desired" id="ET_187"
            route="ET1"/>
   <vehicle depart="23046.2936" departLane="best" departSpeed="desired" id="ET_188"
            route="ET1"/>
   <vehicle depart="23088.2936" departLane="best" departSpeed="desired" id="ET_189"
            route="ET1"/>
   <vehicle depart="23142.2936" departLane="best" departSpeed="desired" id="ET_190"
            route="ET1"/>
   <vehicle depart="23154.2936" departLane="best" departSpeed="desired" id="ET_191"
            route="ET1"/>
   <vehicle depart="23193.2936" departLane="best" departSpeed="desired" id="ET_192"
            route="ET1"/>
   <vehicle depart="23201.2936" departLane="best" departSpeed="desired" id="ET_193"
            route="ET1"/>
   <vehicle depart="23218.2936" departLane="best" departSpeed="desired" id="ET_194"
            route="ET1"/>
   <vehicle depart="23341.2936" departLane="best" departSpeed="desired" id="ET_195"
            route="ET1"/>
   <vehicle depart="23379.2936" departLane="best" departSpeed="desired" id="ET_196"
            route="ET1"/>
   <vehicle depart="23412.2936" departLane="best" departSpeed="desired" id="ET_197"
            route="ET1"/>
   <vehicle depart="23434.2936" departLane="best" departSpeed="desired" id="ET_198"
            route="ET1"/>
   <vehicle depart="23492.2936" departLane="best" departSpeed="desired" id="ET_199"
            route="ET1"/>
   <vehicle depart="23634.2936" departLane="best" departSpeed="desired" id="ET_200"
            route="ET1"/>
   <vehicle depart="23657.2936" departLane="best" departSpeed="desired" id="ET_201"
            route="ET1"/>
   <vehicle depart="23674.2936" departLane="best" departSpeed="desired" id="ET_202"
            route="ET1"/>
   <vehicle depart="23717.2936" departLane="best" departSpeed="desired" id="ET_203"
            route="ET1"/>
   <vehicle depart="23750.2936" departLane="best" departSpeed="desired" id="ET_204"
            route="ET1"/>
   <vehicle depart="23777.2936" departLane="best" departSpeed="desired" id="ET_205"
            route="ET1"/>
   <vehicle depart="23793.2936" departLane="best" departSpeed="desired" id="ET_206"
            route="ET1"/>
   <vehicle depart="23801.2936" departLane="best" departSpeed="desired" id="ET_207"
            route="ET1"/>
   <vehicle depart="23822.2936" departLane="best" departSpeed="desired" id="ET_208"
            route="ET1"/>
   <vehicle depart="23837.2936" departLane="best" departSpeed="desired" id="ET_209"
            route="ET1"/>
   <vehicle depart="23892.2936" departLane="best" departSpeed="desired" id="ET_210"
            route="ET1"/>
   <vehicle depart="23906.2936" departLane="best" departSpeed="desired" id="ET_211"
            route="ET1"/>
   <vehicle depart="23920.2936" departLane="best" departSpeed="desired" id="ET_212"
            route="ET1"/>
   <vehicle depart="23934.2936" departLane="best" departSpeed="desired" id="ET_213"
            route="ET1"/>
   <vehicle depart="23935.2936" departLane="best" departSpeed="desired" id="ET_214"
            route="ET1"/>
   <vehicle depart="23965.2936" departLane="best" departSpeed="desired" id="ET_215"
            route="ET1"/>
   <vehicle depart="23968.2936" departLane="best" departSpeed="desired" id="ET_216"
            route="ET1"/>
   <vehicle depart="23992.2936" departLane="best" departSpeed="desired" id="ET_217"
            route="ET1"/>
   <vehicle depart="23997.2936" departLane="best" departSpeed="desired" id="ET_218"
            route="ET1"/>
   <vehicle depart="24006.2936" departLane="best" departSpeed="desired" id="ET_219"
            route="ET1"/>
   <vehicle depart="24069.2936" departLane="best" departSpeed="desired" id="ET_220"
            route="ET1"/>
   <vehicle depart="24087.2936" departLane="best" departSpeed="desired" id="ET_221"
            route="ET1"/>
   <vehicle depart="24124.2936" departLane="best" departSpeed="desired" id="ET_222"
            route="ET1"/>
   <vehicle depart="24131.2936" departLane="best" departSpeed="desired" id="ET_223"
            route="ET1"/>
   <vehicle depart="24143.2936" departLane="best" departSpeed="desired" id="ET_224"
            route="ET1"/>
   <vehicle depart="24241.2936" departLane="best" departSpeed="desired" id="ET_225"
            route="ET1"/>
   <vehicle depart="24282.2936" departLane="best" departSpeed="desired" id="ET_226"
            route="ET1"/>
   <vehicle depart="24296.2936" departLane="best" departSpeed="desired" id="ET_227"
            route="ET1"/>
   <vehicle depart="24307.2936" departLane="best" departSpeed="desired" id="ET_228"
            route="ET1"/>
   <vehicle depart="24314.2936" departLane="best" departSpeed="desired" id="ET_229"
            route="ET1"/>
   <vehicle depart="24318.2936" departLane="best" departSpeed="desired" id="ET_230"
            route="ET1"/>
   <vehicle depart="24328.2936" departLane="best" departSpeed="desired" id="ET_231"
            route="ET1"/>
   <vehicle depart="24363.2936" departLane="best" departSpeed="desired" id="ET_232"
            route="ET1"/>
   <vehicle depart="24378.2936" departLane="best" departSpeed="desired" id="ET_233"
            route="ET1"/>
   <vehicle depart="24395.2936" departLane="best" departSpeed="desired" id="ET_234"
            route="ET1"/>
   <vehicle depart="24399.2936" departLane="best" departSpeed="desired" id="ET_235"
            route="ET1"/>
   <vehicle depart="24432.2936" departLane="best" departSpeed="desired" id="ET_236"
            route="ET1"/>
   <vehicle depart="24440.2936" departLane="best" departSpeed="desired" id="ET_237"
            route="ET1"/>
   <vehicle depart="24445.2936" departLane="best" departSpeed="desired" id="ET_238"
            route="ET1"/>
   <vehicle depart="24471.2936" departLane="best" departSpeed="desired" id="ET_239"
            route="ET1"/>
   <vehicle depart="24481.2936" departLane="best" departSpeed="desired" id="ET_240"
            route="ET1"/>
   <vehicle depart="24489.2936" departLane="best" departSpeed="desired" id="ET_241"
            route="ET1"/>
   <vehicle depart="24511.2936" departLane="best" departSpeed="desired" id="ET_242"
            route="ET1"/>
   <vehicle depart="24575.2936" departLane="best" departSpeed="desired" id="ET_243"
            route="ET1"/>
   <vehicle depart="24607.2936" departLane="best" departSpeed="desired" id="ET_244"
            route="ET1"/>
   <vehicle depart="24608.2936" departLane="best" departSpeed="desired" id="ET_245"
            route="ET1"/>
   <vehicle depart="24641.2936" departLane="best" departSpeed="desired" id="ET_246"
            route="ET1"/>
   <vehicle depart="24668.2936" departLane="best" departSpeed="desired" id="ET_247"
            route="ET1"/>
   <vehicle depart="24670.2936" departLane="best" departSpeed="desired" id="ET_248"
            route="ET1"/>
   <vehicle depart="24672.2936" departLane="best" departSpeed="desired" id="ET_249"
            route="ET1"/>
   <vehicle depart="24677.2936" departLane="best" departSpeed="desired" id="ET_250"
            route="ET1"/>
   <vehicle depart="24690.2936" departLane="best" departSpeed="desired" id="ET_251"
            route="ET1"/>
   <vehicle depart="24695.2936" departLane="best" departSpeed="desired" id="ET_252"
            route="ET1"/>
   <vehicle depart="24700.2936" departLane="best" departSpeed="desired" id="ET_253"
            route="ET1"/>
   <vehicle depart="24710.2936" departLane="best" departSpeed="desired" id="ET_254"
            route="ET1"/>
   <vehicle depart="24770.2936" departLane="best" departSpeed="desired" id="ET_255"
            route="ET1"/>
   <vehicle depart="24772.2936" departLane="best" departSpeed="desired" id="ET_256"
            route="ET1"/>
   <vehicle depart="24773.2936" departLane="best" departSpeed="desired" id="ET_257"
            route="ET1"/>
   <vehicle depart="24783.2936" departLane="best" departSpeed="desired" id="ET_258"
            route="ET1"/>
   <vehicle depart="24787.2936" departLane="best" departSpeed="desired" id="ET_259"
            route="ET1"/>
   <vehicle depart="24807.2936" departLane="best" departSpeed="desired" id="ET_260"
            route="ET1"/>
   <vehicle depart="24809.2936" departLane="best" departSpeed="desired" id="ET_261"
            route="ET1"/>
   <vehicle depart="24812.2936" departLane="best" departSpeed="desired" id="ET_262"
            route="ET1"/>
   <vehicle depart="24870.2936" departLane="best" departSpeed="desired" id="ET_263"
            route="ET1"/>
   <vehicle depart="24871.2936" departLane="best" departSpeed="desired" id="ET_264"
            route="ET1"/>
   <vehicle depart="24874.2936" departLane="best" departSpeed="desired" id="ET_265"
            route="ET1"/>
   <vehicle depart="24892.2936" departLane="best" departSpeed="desired" id="ET_266"
            route="ET1"/>
   <vehicle depart="24969.2936" departLane="best" departSpeed="desired" id="ET_267"
            route="ET1"/>
   <vehicle depart="24976.2936" departLane="best" departSpeed="desired" id="ET_268"
            route="ET1"/>
   <vehicle depart="24979.2936" departLane="best" departSpeed="desired" id="ET_269"
            route="ET1"/>
   <vehicle depart="25004.2936" departLane="best" departSpeed="desired" id="ET_270"
            route="ET1"/>
   <vehicle depart="25017.2936" departLane="best" departSpeed="desired" id="ET_271"
            route="ET1"/>
   <vehicle depart="25022.2936" departLane="best" departSpeed="desired" id="ET_272"
            route="ET1"/>
   <vehicle depart="25022.2936" departLane="best" departSpeed="desired" id="ET_273"
            route="ET1"/>
   <vehicle depart="25049.2936" departLane="best" departSpeed="desired" id="ET_274"
            route="ET1"/>
   <vehicle depart="25053.2936" departLane="best" departSpeed="desired" id="ET_275"