<?xml version="1.0" encoding="utf-8"?>
<routes>
   <route edges="South8 East20" id="SL"/>
   <vehicle depart="1268.5093" departLane="best" departSpeed="desired" id="SL_1" route="SL"/>
   <vehicle depart="2115.5093" departLane="best" departSpeed="desired" id="SL_2" route="SL"/>
   <vehicle depart="2702.5093" departLane="best" departSpeed="desired" id="SL_3" route="SL"/>
   <vehicle depart="3779.5093" departLane="best" departSpeed="desired" id="SL_4" route="SL"/>
   <vehicle depart="5749.5093" departLane="best" departSpeed="desired" id="SL_5" route="SL"/>
   <vehicle depart="7242.5093" departLane="best" departSpeed="desired" id="SL_6" route="SL"/>
   <vehicle depart="10751.5093" departLane="best" departSpeed="desired" id="SL_7"
            route="SL"/>
   <vehicle depart="11648.5093" departLane="best" departSpeed="desired" id="SL_8"
            route="SL"/>
   <vehicle depart="12815.5093" departLane="best" departSpeed="desired" id="SL_9"
            route="SL"/>
   <vehicle depart="17474.5093" departLane="best" departSpeed="desired" id="SL_10"
            route="SL"/>
   <vehicle depart="17805.5093" departLane="best" departSpeed="desired" id="SL_11"
            route="SL"/>
   <vehicle depart="18016.5093" departLane="best" departSpeed="desired" id="SL_12"
            route="SL"/>
   <vehicle depart="18390.5093" departLane="best" departSpeed="desired" id="SL_13"
            route="SL"/>
   <vehicle depart="20197.5093" departLane="best" departSpeed="desired" id="SL_14"
            route="SL"/>
   <vehicle depart="20562.5093" departLane="best" departSpeed="desired" id="SL_15"
            route="SL"/>
   <vehicle depart="20664.5093" departLane="best" departSpeed="desired" id="SL_16"
            route="SL"/>
   <vehicle depart="20980.5093" departLane="best" departSpeed="desired" id="SL_17"
            route="SL"/>
   <vehicle depart="21397.5093" departLane="best" departSpeed="desired" id="SL_18"
            route="SL"/>
   <vehicle depart="21700.5093" departLane="best" departSpeed="desired" id="SL_19"
            route="SL"/>
   <vehicle depart="22699.5093" departLane="best" departSpeed="desired" id="SL_20"
            route="SL"/>
   <vehicle depart="23281.5093" departLane="best" departSpeed="desired" id="SL_21"
            route="SL"/>
   <vehicle depart="24058.5093" departLane="best" departSpeed="desired" id="SL_22"
            route="SL"/>
   <vehicle depart="24208.5093" departLane="best" departSpeed="desired" id="SL_23"
            route="SL"/>
   <vehicle depart="24370.5093" departLane="best" departSpeed="desired" id="SL_24"
            route="SL"/>
   <vehicle depart="24561.5093" departLane="best" departSpeed="desired" id="SL_25"
            route="SL"/>
   <vehicle depart="24563.5093" departLane="best" departSpeed="desired" id="SL_26"
            route="SL"/>
   <vehicle depart="24618.5093" departLane="best" departSpeed="desired" id="SL_27"
            route="SL"/>
   <vehicle depart="24623.5093" departLane="best" departSpeed="desired" id="SL_28"
            route="SL"/>
   <vehicle depart="24628.5093" departLane="best" departSpeed="desired" id="SL_29"
            route="SL"/>
   <vehicle depart="24631.5093" departLane="best" departSpeed="desired" id="SL_30"
            route="SL"/>
   <vehicle depart="24649.5093" departLane="best" departSpeed="desired" id="SL_31"
            route="SL"/>
   <vehicle depart="24801.5093" departLane="best" departSpeed="desired" id="SL_32"
            route="SL"/>
   <vehicle depart="24821.5093" departLane="best" departSpeed="desired" id="SL_33"
            route="SL"/>
   <vehicle depart="24855.5093" departLane="best" departSpeed="desired" id="SL_34"
            route="SL"/>
   <vehicle depart="24923.5093" departLane="best" departSpeed="desired" id="SL_35"
            route="SL"/>
   <vehicle depart="25019.5093" departLane="best" departSpeed="desired" id="SL_36"
            route="SL"/>
   <vehicle depart="25229.5093" departLane="best" departSpeed="desired" id="SL_37"
            route="SL"/>
   <vehicle depart="25233.5093" departLane="best" departSpeed="desired" id="SL_38"
            route="SL"/>
   <vehicle depart="25379.5093" departLane="best" departSpeed="desired" id="SL_39"
            route="SL"/>
   <vehicle depart="25455.5093" departLane="best" departSpeed="desired" id="SL_40"
            route="SL"/>
   <vehicle depart="25866.5093" departLane="best" departSpeed="desired" id="SL_41"
            route="SL"/>
   <vehicle depart="26176.5093" departLane="best" departSpeed="desired" id="SL_42"
            route="SL"/>
   <vehicle depart="26464.5093" departLane="best" departSpeed="desired" id="SL_43"
            route="SL"/>
   <vehicle depart="26500.5093" departLane="best" departSpeed="desired" id="SL_44"
            route="SL"/>
   <vehicle depart="26668.5093" departLane="best" departSpeed="desired" id="SL_45"
            route="SL"/>
   <vehicle depart="26706.5093" departLane="best" departSpeed="desired" id="SL_46"
            route="SL"/>
   <vehicle depart="26721.5093" departLane="best" departSpeed="desired" id="SL_47"
            route="SL"/>
   <vehicle depart="26731.5093" departLane="best" departSpeed="desired" id="SL_48"
            route="SL"/>
   <vehicle depart="26733.5093" departLane="best" departSpeed="desired" id="SL_49"
            route="SL"/>
   <vehicle depart="26979.5093" departLane="best" departSpeed="desired" id="SL_50"
            route="SL"/>
   <vehicle depart="27217.5093" departLane="best" departSpeed="desired" id="SL_51"
            route="SL"/>
   <vehicle depart="27235.5093" departLane="best" departSpeed="desired" id="SL_52"
            route="SL"/>
   <vehicle depart="27294.5093" departLane="best" departSpeed="desired" id="SL_53"
            route="SL"/>
   <vehicle depart="27314.5093" departLane="best" departSpeed="desired" id="SL_54"
            route="SL"/>
   <vehicle depart="27409.5093" departLane="best" departSpeed="desired" id="SL_55"
            route="SL"/>
   <vehicle depart="27919.5093" departLane="best" departSpeed="desired" id="SL_56"
            route="SL"/>
   <vehicle depart="28024.5093" departLane="best" departSpeed="desired" id="SL_57"
            route="SL"/>
   <vehicle depart="28079.5093" departLane="best" departSpeed="desired" id="SL_58"
            route="SL"/>
   <vehicle depart="28080.5093" departLane="best" departSpeed="desired" id="SL_59"
            route="SL"/>
   <vehicle depart="28105.5093" departLane="best" departSpeed="desired" id="SL_60"
            route="SL"/>
   <vehicle depart="28233.5093" departLane="best" departSpeed="desired" id="SL_61"
            route="SL"/>
   <vehicle depart="28492.5093" departLane="best" departSpeed="desired" id="SL_62"
            route="SL"/>
   <vehicle depart="28562.5093" departLane="best" departSpeed="desired" id="SL_63"
            route="SL"/>
   <vehicle depart="28674.5093" departLane="best" departSpeed="desired" id="SL_64"
            route="SL"/>
   <vehicle depart="28729.5093" departLane="best" departSpeed="desired" id="SL_65"
            route="SL"/>
   <vehicle depart="28746.5093" departLane="best" departSpeed="desired" id="SL_66"
            route="SL"/>
   <vehicle depart="28946.5093" departLane="best" departSpeed="desired" id="SL_67"
            route="SL"/>
   <vehicle depart="28964.5093" departLane="best" departSpeed="desired" id="SL_68"
            route="SL"/>
   <vehicle depart="29122.5093" departLane="best" departSpeed="desired" id="SL_69"
            route="SL"/>
   <vehicle depart="29170.5093" departLane="best" departSpeed="desired" id="SL_70"
            route="SL"/>
   <vehicle depart="29283.5093" departLane="best" departSpeed="desired" id="SL_71"
            route="SL"/>
   <vehicle depart="29373.5093" departLane="best" departSpeed="desired" id="SL_72"
            route="SL"/>
   <vehicle depart="29394.5093" departLane="best" departSpeed="desired" id="SL_73"
            route="SL"/>
   <vehicle depart="29433.5093" departLane="best" departSpeed="desired" id="SL_74"
            route="SL"/>
   <vehicle depart="29436.5093" departLane="best" departSpeed="desired" id="SL_75"
            route="SL"/>
   <vehicle depart="29483.5093" departLane="best" departSpeed="desired" id="SL_76"
            route="SL"/>
   <vehicle depart="29526.5093" departLane="best" departSpeed="desired" id="SL_77"
            route="SL"/>
   <vehicle depart="29537.5093" departLane="best" departSpeed="desired" id="SL_78"
            route="SL"/>
   <vehicle depart="29601.5093" departLane="best" departSpeed="desired" id="SL_79"
            route="SL"/>
   <vehicle depart="29712.5093" departLane="best" departSpeed="desired" id="SL_80"
            route="SL"/>
   <vehicle depart="29721.5093" departLane="best" departSpeed="desired" id="SL_81"
            route="SL"/>
   <vehicle depart="29819.5093" departLane="best" departSpeed="desired" id="SL_82"
            route="SL"/>
   <vehicle depart="29848.5093" departLane="best" departSpeed="desired" id="SL_83"
            route="SL"/>
   <vehicle depart="30019.5093" departLane="best" departSpeed="desired" id="SL_84"
            route="SL"/>
   <vehicle depart="30058.5093" departLane="best" departSpeed="desired" id="SL_85"
            route="SL"/>
   <vehicle depart="30133.5093" departLane="best" departSpeed="desired" id="SL_86"
            route="SL"/>
   <vehicle depart="30186.5093" departLane="best" departSpeed="desired" id="SL_87"
            route="SL"/>
   <vehicle depart="30214.5093" departLane="best" departSpeed="desired" id="SL_88"
            route="SL"/>
   <vehicle depart="30425.5093" departLane="best" departSpeed="desired" id="SL_89"
            route="SL"/>
   <vehicle depart="30457.5093" departLane="best" departSpeed="desired" id="SL_90"
            route="SL"/>
   <vehicle depart="30457.5093" departLane="best" departSpeed="desired" id="SL_91"
            route="SL"/>
   <vehicle depart="30579.5093" departLane="best" departSpeed="desired" id="SL_92"
            route="SL"/>
   <vehicle depart="30669.5093" departLane="best" departSpeed="desired" id="SL_93"
            route="SL"/>
   <vehicle depart="30672.5093" departLane="best" departSpeed="desired" id="SL_94"
            route="SL"/>
   <vehicle depart="30774.5093" departLane="best" departSpeed="desired" id="SL_95"
            route="SL"/>
   <vehicle depart="30803.5093" departLane="best" departSpeed="desired" id="SL_96"
            route="SL"/>
   <vehicle depart="30807.5093" departLane="best" departSpeed="desired" id="SL_97"
            route="SL"/>
   <vehicle depart="30889.5093" departLane="best" departSpeed="desired" id="SL_98"
            route="SL"/>
   <vehicle depart="30934.5093" departLane="best" departSpeed="desired" id="SL_99"
            route="SL"/>
   <vehicle depart="30939.5093" departLane="best" departSpeed="desired" id="SL_100"
            route="SL"/>
   <vehicle depart="30982.5093" departLane="best" departSpeed="desired" id="SL_101"
            route="SL"/>
   <vehicle depart="31112.5093" departLane="best" departSpeed="desired" id="SL_102"
            route="SL"/>
   <vehicle depart="31144.5093" departLane="best" departSpeed="desired" id="SL_103"
            route="SL"/>
   <vehicle depart="31260.5093" departLane="best" departSpeed="desired" id="SL_104"
            route="SL"/>
   <vehicle depart="31357.5093" departLane="best" departSpeed="desired" id="SL_105"
            route="SL"/>
   <vehicle depart="31379.5093" departLane="best" departSpeed="desired" id="SL_106"
            route="SL"/>
   <vehicle depart="31429.5093" departLane="best" departSpeed="desired" id="SL_107"
            route="SL"/>
   <vehicle depart="31435.5093" departLane="best" departSpeed="desired" id="SL_108"
            route="SL"/>
   <vehicle depart="31440.5093" departLane="best" departSpeed="desired" id="SL_109"
            route="SL"/>
   <vehicle depart="31462.5093" departLane="best" departSpeed="desired" id="SL_110"
            route="SL"/>
   <vehicle depart="31582.5093" departLane="best" departSpeed="desired" id="SL_111"
            route="SL"/>
   <vehicle depart="31606.5093" departLane="best" departSpeed="desired" id="SL_112"
            route="SL"/>
   <vehicle depart="31690.5093" departLane="best" departSpeed="desired" id="SL_113"
            route="SL"/>
   <vehicle depart="31725.5093" departLane="best" departSpeed="desired" id="SL_114"
            route="SL"/>
   <vehicle depart="31826.5093" departLane="best" departSpeed="desired" id="SL_115"
            route="SL"/>
   <vehicle depart="31840.5093" departLane="best" departSpeed="desired" id="SL_116"
            route="SL"/>
   <vehicle depart="31929.5093" departLane="best" departSpeed="desired" id="SL_117"
            route="SL"/>
   <vehicle depart="32040.5093" departLane="best" departSpeed="desired" id="SL_118"
            route="SL"/>
   <vehicle depart="32149.5093" departLane="best" departSpeed="desired" id="SL_119"
            route="SL"/>
   <vehicle depart="32339.5093" departLane="best" departSpeed="desired" id="SL_120"
            route="SL"/>
   <vehicle depart="32412.5093" departLane="best" departSpeed="desired" id="SL_121"
            route="SL"/>
   <vehicle depart="32482.5093" departLane="best" departSpeed="desired" id="SL_122"
            route="SL"/>
   <vehicle depart="32608.5093" departLane="best" departSpeed="desired" id="SL_123"
            route="SL"/>
   <vehicle depart="32665.5093" departLane="best" departSpeed="desired" id="SL_124"
            route="SL"/>
   <vehicle depart="32728.5093" departLane="best" departSpeed="desired" id="SL_125"
            route="SL"/>
   <vehicle depart="32755.5093" departLane="best" departSpeed="desired" id="SL_126"
            route="SL"/>
   <vehicle depart="32952.5093" departLane="best" departSpeed="desired" id="SL_127"
            route="SL"/>
   <vehicle depart="33000.5093" departLane="best" departSpeed="desired" id="SL_128"
            route="SL"/>
   <vehicle depart="33010.5093" departLane="best" departSpeed="desired" id="SL_129"
            route="SL"/>
   <vehicle depart="33123.5093" departLane="best" departSpeed="desired" id="SL_130"
            route="SL"/>
   <vehicle depart="33220.5093" departLane="best" departSpeed="desired" id="SL_131"
            route="SL"/>
   <vehicle depart="33228.5093" departLane="best" departSpeed="desired" id="SL_132"
            route="SL"/>
   <vehicle depart="33243.5093" departLane="best" departSpeed="desired" id="SL_133"
            route="SL"/>
   <vehicle depart="33264.5093" departLane="best" departSpeed="desired" id="SL_134"
            route="SL"/>
   <vehicle depart="33265.5093" departLane="best" departSpeed="desired" id="SL_135"
            route="SL"/>
   <vehicle depart="33274.5093" departLane="best" departSpeed="desired" id="SL_136"
            route="SL"/>
   <vehicle depart="33372.5093" departLane="best" departSpeed="desired" id="SL_137"
            route="SL"/>
   <vehicle depart="33422.5093" departLane="best" departSpeed="desired" id="SL_138"
            route="SL"/>
   <vehicle depart="33438.5093" departLane="best" departSpeed="desired" id="SL_139"
            route="SL"/>
   <vehicle depart="33442.5093" departLane="best" departSpeed="desired" id="SL_140"
            route="SL"/>
   <vehicle depart="33443.5093" departLane="best" departSpeed="desired" id="SL_141"
            route="SL"/>
   <vehicle depart="33490.5093" departLane="best" departSpeed="desired" id="SL_142"
            route="SL"/>
   <vehicle depart="33531.5093" departLane="best" departSpeed="desired" id="SL_143"
            route="SL"/>
   <vehicle depart="33538.5093" departLane="best" departSpeed="desired" id="SL_144"
            route="SL"/>
   <vehicle depart="33554.5093" departLane="best" departSpeed="desired" id="SL_145"
            route="SL"/>
   <vehicle depart="33625.5093" departLane="best" departSpeed="desired" id="SL_146"
            route="SL"/>
   <vehicle depart="33632.5093" departLane="best" departSpeed="desired" id="SL_147"
            route="SL"/>
   <vehicle depart="33672.5093" departLane="best" departSpeed="desired" id="SL_148"
            route="SL"/>
   <vehicle depart="33816.5093" departLane="best" departSpeed="desired" id="SL_149"
            route="SL"/>
   <vehicle depart="33833.5093" departLane="best" departSpeed="desired" id="SL_150"
            route="SL"/>
   <vehicle depart="33835.5093" departLane="best" departSpeed="desired" id="SL_151"
            route="SL"/>
   <vehicle depart="33959.5093" departLane="best" departSpeed="desired" id="SL_152"
            route="SL"/>
   <vehicle depart="34012.5093" departLane="best" departSpeed="desired" id="SL_153"
            route="SL"/>
   <vehicle depart="34059.5093" departLane="best" departSpeed="desired" id="SL_154"
            route="SL"/>
   <vehicle depart="34147.5093" departLane="best" departSpeed="desired" id="SL_155"
            route="SL"/>
   <vehicle depart="34160.5093" departLane="best" departSpeed="desired" id="SL_156"
            route="SL"/>
   <vehicle depart="34222.5093" departLane="best" departSpeed="desired" id="SL_157"
            route="SL"/>
   <vehicle depart="34238.5093" departLane="best" departSpeed="desired" id="SL_158"
            route="SL"/>
   <vehicle depart="34365.5093" departLane="best" departSpeed="desired" id="SL_159"
            route="SL"/>
   <vehicle depart="34373.5093" departLane="best" departSpeed="desired" id="SL_160"
            route="SL"/>
   <vehicle depart="34390.5093" departLane="best" departSpeed="desired" id="SL_161"
            route="SL"/>
   <vehicle depart="34417.5093" departLane="best" departSpeed="desired" id="SL_162"
            route="SL"/>
   <vehicle depart="34564.5093" departLane="best" departSpeed="desired" id="SL_163"
            route="SL"/>
   <vehicle depart="34618.5093" departLane="best" departSpeed="desired" id="SL_164"
            route="SL"/>
   <vehicle depart="34684.5093" departLane="best" departSpeed="desired" id="SL_165"
            route="SL"/>
   <vehicle depart="34736.5093" departLane="best" departSpeed="desired" id="SL_166"
            route="SL"/>
   <vehicle depart="34775.5093" departLane="best" departSpeed="desired" id="SL_167"
            route="SL"/>
   <vehicle depart="34918.5093" departLane="best" departSpeed="desired" id="SL_168"
            route="SL"/>
   <vehicle depart="34949.5093" departLane="best" departSpeed="desired" id="SL_169"
            route="SL"/>
   <vehicle depart="34957.5093" departLane="best" departSpeed="desired" id="SL_170"
            route="SL"/>
   <vehicle depart="34970.5093" departLane="best" departSpeed="desired" id="SL_171"
            route="SL"/>
   <vehicle depart="34971.5093" departLane="best" departSpeed="desired" id="SL_172"
            route="SL"/>
   <vehicle depart="35018.5093" departLane="best" departSpeed="desired" id="SL_173"
            route="SL"/>
   <vehicle depart="35024.5093" departLane="best" departSpeed="desired" id="SL_174"
            route="SL"/>
   <vehicle depart="35126.5093" departLane="best" departSpeed="desired" id="SL_175"
            route="SL"/>
   <vehicle depart="35249.5093" departLane="best" departSpeed="desired" id="SL_176"
            route="SL"/>
   <vehicle depart="35393.5093" departLane="best" departSpeed="desired" id="SL_177"
            route="SL"/>
   <vehicle depart="35504.5093" departLane="best" departSpeed="desired" id="SL_178"
            route="SL"/>
   <vehicle depart="35637.5093" departLane="best" departSpeed="desired" id="SL_179"
            route="SL"/>
   <vehicle depart="35682.5093" departLane="best" departSpeed="desired" id="SL_180"
            route="SL"/>
   <vehicle depart="35726.5093" departLane="best" departSpeed="desired" id="SL_181"
            route="SL"/>
   <vehicle depart="35745.5093" departLane="best" departSpeed="desired" id="SL_182"
            route="SL"/>
   <vehicle depart="35777.5093" departLane="best" departSpeed="desired" id="SL_183"
            route="SL"/>
   <vehicle depart="35794.5093" departLane="best" departSpeed="desired" id="SL_184"
            route="SL"/>
   <vehicle depart="35818.5093" departLane="best" departSpeed="desired" id="SL_185"
            route="SL"/>
   <vehicle depart="35835.5093" departLane="best" departSpeed="desired" id="SL_186"
            route="SL"/>
   <vehicle depart="35856.5093" departLane="best" departSpeed="desired" id="SL_187"
            route="SL"/>
   <vehicle depart="35934.5093" departLane="best" departSpeed="desired" id="SL_188"
            route="SL"/>
   <vehicle depart="35958.5093" departLane="best" departSpeed="desired" id="SL_189"
            route="SL"/>
   <vehicle depart="35974.5093" departLane="best" departSpeed="desired" id="SL_190"
            route="SL"/>
   <vehicle depart="36045.5093" departLane="best" departSpeed="desired" id="SL_191"
            route="SL"/>
   <vehicle depart="36127.5093" departLane="best" departSpeed="desired" id="SL_192"
            route="SL"/>
   <vehicle depart="36163.5093" departLane="best" departSpeed="desired" id="SL_193"
            route="SL"/>
   <vehicle depart="36239.5093" departLane="best" departSpeed="desired" id="SL_194"
            route="SL"/>
   <vehicle depart="36392.5093" departLane="best" departSpeed="desired" id="SL_195"
            route="SL"/>
   <vehicle depart="36442.5093" departLane="best" departSpeed="desired" id="SL_196"
            route="SL"/>
   <vehicle depart="36469.5093" departLane="best" departSpeed="desired" id="SL_197"
            route="SL"/>
   <vehicle depart="36538.5093" departLane="best" departSpeed="desired" id="SL_198"
            route="SL"/>
   <vehicle depart="36619.5093" departLane="best" departSpeed="desired" id="SL_199"
            route="SL"/>
   <vehicle depart="36660.5093" departLane="best" departSpeed="desired" id="SL_200"
            route="SL"/>
   <vehicle depart="36692.5093" departLane="best" departSpeed="desired" id="SL_201"
            route="SL"/>
   <vehicle depart="36714.5093" departLane="best" departSpeed="desired" id="SL_202"
            route="SL"/>
   <vehicle depart="36720.5093" departLane="best" departSpeed="desired" id="SL_203"
            route="SL"/>
   <vehicle depart="36743.5093" departLane="best" departSpeed="desired" id="SL_204"
            route="SL"/>
   <vehicle depart="36765.5093" departLane="best" departSpeed="desired" id="SL_205"
            route="SL"/>
   <vehicle depart="36776.5093" departLane="best" departSpeed="desired" id="SL_206"
            route="SL"/>
   <vehicle depart="36901.5093" departLane="best" departSpeed="desired" id="SL_207"
            route="SL"/>
   <vehicle depart="36962.5093" departLane="best" departSpeed="desired" id="SL_208"
            route="SL"/>
   <vehicle depart="36976.5093" departLane="best" departSpeed="desired" id="SL_209"
            route="SL"/>
   <vehicle depart="37011.5093" departLane="best" departSpeed="desired" id="SL_210"
            route="SL"/>
   <vehicle depart="37036.5093" departLane="best" departSpeed="desired" id="SL_211"
            route="SL"/>
   <vehicle depart="37107.5093" departLane="best" departSpeed="desired" id="SL_212"
            route="SL"/>
   <vehicle depart="37151.5093" departLane="best" departSpeed="desired" id="SL_213"
            route="SL"/>
   <vehicle depart="37172.5093" departLane="best" departSpeed="desired" id="SL_214"
            route="SL"/>
   <vehicle depart="37224.5093" departLane="best" departSpeed="desired" id="SL_215"
            route="SL"/>
   <vehicle depart="37261.5093" departLane="best" departSpeed="desired" id="SL_216"
            route="SL"/>
   <vehicle depart="37306.5093" departLane="best" departSpeed="desired" id="SL_217"
            route="SL"/>
   <vehicle depart="37368.5093" departLane="best" departSpeed="desired" id="SL_218"
            route="SL"/>
   <vehicle depart="37389.5093" departLane="best" departSpeed="desired" id="SL_219"
            route="SL"/>
   <vehicle depart="37399.5093" departLane="best" departSpeed="desired" id="SL_220"
            route="SL"/>
   <vehicle depart="37432.5093" departLane="best" departSpeed="desired" id="SL_221"
            route="SL"/>
   <vehicle depart="37438.5093" departLane="best" departSpeed="desired" id="SL_222"
            route="SL"/>
   <vehicle depart="37447.5093" departLane="best" departSpeed="desired" id="SL_223"
            route="SL"/>
   <vehicle depart="37494.5093" departLane="best" departSpeed="desired" id="SL_224"
            route="SL"/>
   <vehicle depart="37506.5093" departLane="best" departSpeed="desired" id="SL_225"
            route="SL"/>
   <vehicle depart="37519.5093" departLane="best" departSpeed="desired" id="SL_226"
            route="SL"/>
   <vehicle depart="37669.5093" departLane="best" departSpeed="desired" id="SL_227"
            route="SL"/>
   <vehicle depart="37769.5093" departLane="best" departSpeed="desired" id="SL_228"
            route="SL"/>
   <vehicle depart="37780.5093" departLane="best" departSpeed="desired" id="SL_229"
            route="SL"/>
   <vehicle depart="37784.5093" departLane="best" departSpeed="desired" id="SL_230"
            route="SL"/>
   <vehicle depart="37792.5093" departLane="best" departSpeed="desired" id="SL_231"
            route="SL"/>
   <vehicle depart="37802.5093" departLane="best" departSpeed="desired" id="SL_232"
            route="SL"/>
   <vehicle depart="37887.5093" departLane="best" departSpeed="desired" id="SL_233"
            route="SL"/>
   <vehicle depart="37892.5093" departLane="best" departSpeed="desired" id="SL_234"
            route="SL"/>
   <vehicle depart="37987.5093" departLane="best" departSpeed="desired" id="SL_235"
            route="SL"/>
   <vehicle depart="37994.5093" departLane="best" departSpeed="desired" id="SL_236"
            route="SL"/>
   <vehicle depart="37997.5093" departLane="best" departSpeed="desired" id="SL_237"
            route="SL"/>
   <vehicle depart="38068.5093" departLane="best" departSpeed="desired" id="SL_238"
            route="SL"/>
   <vehicle depart="38204.5093" departLane="best" departSpeed="desired" id="SL_239"
            route="SL"/>
   <vehicle depart="38227.5093" departLane="best" departSpeed="desired" id="SL_240"
            route="SL"/>
   <vehicle depart="38249.5093" departLane="best" departSpeed="desired" id="SL_241"
            route="SL"/>
   <vehicle depart="38309.5093" departLane="best" departSpeed="desired" id="SL_242"
            route="SL"/>
   <vehicle depart="38347.5093" departLane="best" departSpeed="desired" id="SL_243"
            route="SL"/>
   <vehicle depart="38370.5093" departLane="best" departSpeed="desired" id="SL_244"
            route="SL"/>
   <vehicle depart="38401.5093" departLane="best" departSpeed="desired" id="SL_245"
            route="SL"/>
   <vehicle depart="38420.5093" departLane="best" departSpeed="desired" id="SL_246"
            route="SL"/>
   <vehicle depart="38498.5093" departLane="best" departSpeed="desired" id="SL_247"
            route="SL"/>
   <vehicle depart="38644.5093" departLane="best" departSpeed="desired" id="SL_248"
            route="SL"/>
   <vehicle depart="38657.5093" departLane="best" departSpeed="desired" id="SL_249"
            route="SL"/>
   <vehicle depart="38663.5093" departLane="best" departSpeed="desired" id="SL_250"
            route="SL"/>
   <vehicle depart="38682.5093" departLane="best" departSpeed="desired" id="SL_251"
            route="SL"/>
   <vehicle depart="38711.5093" departLane="best" departSpeed="desired" id="SL_252"
            route="SL"/>
   <vehicle depart="38791.5093" departLane="best" departSpeed="desired" id="SL_253"
            route="SL"/>
   <vehicle depart="39074.5093" departLane="best" departSpeed="desired" id="SL_254"
            route="SL"/>
   <vehicle depart="39121.5093" departLane="best" departSpeed="desired" id="SL_255"
            route="SL"/>
   <vehicle depart="39134.5093" departLane="best" departSpeed="desired" id="SL_256"
            route="SL"/>
   <vehicle depart="39152.5093" departLane="best" departSpeed="desired" id="SL_257"
            route="SL"/>
   <vehicle depart="39154.5093" departLane="best" departSpeed="desired" id="SL_258"
            route="SL"/>
   <vehicle depart="39221.5093" departLane="best" departSpeed="desired" id="SL_259"
            route="SL"/>
   <vehicle depart="39239.5093" departLane="best" departSpeed="desired" id="SL_260"
            route="SL"/>
   <vehicle depart="39242.5093" departLane="best" departSpeed="desired" id="SL_261"
            route="SL"/>
   <vehicle depart="39247.5093" departLane="best" departSpeed="desired" id="SL_262"
            route="SL"/>
   <vehicle depart="39279.5093" departLane="best" departSpeed="desired" id="SL_263"
            route="SL"/>
   <vehicle depart="39336.5093" departLane="best" departSpeed="desired" id="SL_264"
            route="SL"/>
   <vehicle depart="39379.5093" departLane="best" departSpeed="desired" id="SL_265"
            route="SL"/>
   <vehicle depart="39393.5093" departLane="best" departSpeed="desired" id="SL_266"
            route="SL"/>
   <vehicle depart="39422.5093" departLane="best" departSpeed="desired" id="SL_267"
            route="SL"/>
   <vehicle depart="39433.5093" departLane="best" departSpeed="desired" id="SL_268"
            route="SL"/>
   <vehicle depart="39445.5093" departLane="best" departSpeed="desired" id="SL_269"
            route="SL"/>
   <vehicle depart="39520.5093" departLane="best" departSpeed="desired" id="SL_270"
            route="SL"/>
   <vehicle depart="39674.5093" departLane="best" departSpeed="desired" id="SL_271"
            route="SL"/>
   <vehicle depart="39724.5093" departLane="best" departSpeed="desired" id="SL_272"
            route="SL"/>
   <vehicle depart="39762.5093" departLane="best" departSpeed="desired" id="SL_273"
            route="SL"/>
   <vehicle depart="39776.5093" departLane="best" departSpeed="desired" id="SL_274"
            route="SL"/>
   <vehicle depart="39841.5093" departLane="best" departSpeed="desired" id="SL_275"
            route="SL"/>
   <vehicle depart="39842.5093" departLane="best" departSpeed="desired" id="SL_276"
            route="SL"/>