<?xml version="1.0" encoding="utf-8"?>
<routes>
   <route edges="South8 South8EX" id="ST"/>
   <vehicle depart="355.5093" departLane="best" departSpeed="desired" id="ST_1" route="ST"/>
   <vehicle depart="1258.5093" departLane="best" departSpeed="desired" id="ST_2" route="ST"/>
   <vehicle depart="1532.5093" departLane="best" departSpeed="desired" id="ST_3" route="ST"/>
   <vehicle depart="1541.5093" departLane="best" departSpeed="desired" id="ST_4" route="ST"/>
   <vehicle depart="1696.5093" departLane="best" departSpeed="desired" id="ST_5" route="ST"/>
   <vehicle depart="2064.5093" departLane="best" departSpeed="desired" id="ST_6" route="ST"/>
   <vehicle depart="2104.5093" departLane="best" departSpeed="desired" id="ST_7" route="ST"/>
   <vehicle depart="2154.5093" departLane="best" departSpeed="desired" id="ST_8" route="ST"/>
   <vehicle depart="2168.5093" departLane="best" departSpeed="desired" id="ST_9" route="ST"/>
   <vehicle depart="2391.5093" departLane="best" departSpeed="desired" id="ST_10"
            route="ST"/>
   <vehicle depart="2672.5093" departLane="best" departSpeed="desired" id="ST_11"
            route="ST"/>
   <vehicle depart="2771.5093" departLane="best" departSpeed="desired" id="ST_12"
            route="ST"/>
   <vehicle depart="2774.5093" departLane="best" departSpeed="desired" id="ST_13"
            route="ST"/>
   <vehicle depart="2931.5093" departLane="best" departSpeed="desired" id="ST_14"
            route="ST"/>
   <vehicle depart="3722.5093" departLane="best" departSpeed="desired" id="ST_15"
            route="ST"/>
   <vehicle depart="3744.5093" departLane="best" departSpeed="desired" id="ST_16"
            route="ST"/>
   <vehicle depart="3753.5093" departLane="best" departSpeed="desired" id="ST_17"
            route="ST"/>
   <vehicle depart="4875.5093" departLane="best" departSpeed="desired" id="ST_18"
            route="ST"/>
   <vehicle depart="5438.5093" departLane="best" departSpeed="desired" id="ST_19"
            route="ST"/>
   <vehicle depart="5440.5093" departLane="best" departSpeed="desired" id="ST_20"
            route="ST"/>
   <vehicle depart="5752.5093" departLane="best" departSpeed="desired" id="ST_21"
            route="ST"/>
   <vehicle depart="5767.5093" departLane="best" departSpeed="desired" id="ST_22"
            route="ST"/>
   <vehicle depart="8824.5093" departLane="best" departSpeed="desired" id="ST_23"
            route="ST"/>
   <vehicle depart="9508.5093" departLane="best" departSpeed="desired" id="ST_24"
            route="ST"/>
   <vehicle depart="10437.5093" departLane="best" departSpeed="desired" id="ST_25"
            route="ST"/>
   <vehicle depart="10653.5093" departLane="best" departSpeed="desired" id="ST_26"
            route="ST"/>
   <vehicle depart="10744.5093" departLane="best" departSpeed="desired" id="ST_27"
            route="ST"/>
   <vehicle depart="12520.5093" departLane="best" departSpeed="desired" id="ST_28"
            route="ST"/>
   <vehicle depart="12711.5093" departLane="best" departSpeed="desired" id="ST_29"
            route="ST"/>
   <vehicle depart="13088.5093" departLane="best" departSpeed="desired" id="ST_30"
            route="ST"/>
   <vehicle depart="13728.5093" departLane="best" departSpeed="desired" id="ST_31"
            route="ST"/>
   <vehicle depart="13802.5093" departLane="best" departSpeed="desired" id="ST_32"
            route="ST"/>
   <vehicle depart="13816.5093" departLane="best" departSpeed="desired" id="ST_33"
            route="ST"/>
   <vehicle depart="13837.5093" departLane="best" departSpeed="desired" id="ST_34"
            route="ST"/>
   <vehicle depart="14372.5093" departLane="best" departSpeed="desired" id="ST_35"
            route="ST"/>
   <vehicle depart="14376.5093" departLane="best" departSpeed="desired" id="ST_36"
            route="ST"/>
   <vehicle depart="14379.5093" departLane="best" departSpeed="desired" id="ST_37"
            route="ST"/>
   <vehicle depart="15026.5093" departLane="best" departSpeed="desired" id="ST_38"
            route="ST"/>
   <vehicle depart="17065.5093" departLane="best" departSpeed="desired" id="ST_39"
            route="ST"/>
   <vehicle depart="17396.5093" departLane="best" departSpeed="desired" id="ST_40"
            route="ST"/>
   <vehicle depart="17455.5093" departLane="best" departSpeed="desired" id="ST_41"
            route="ST"/>
   <vehicle depart="17648.5093" departLane="best" departSpeed="desired" id="ST_42"
            route="ST"/>
   <vehicle depart="17798.5093" departLane="best" departSpeed="desired" id="ST_43"
            route="ST"/>
   <vehicle depart="17825.5093" departLane="best" departSpeed="desired" id="ST_44"
            route="ST"/>
   <vehicle depart="17872.5093" departLane="best" departSpeed="desired" id="ST_45"
            route="ST"/>
   <vehicle depart="17959.5093" departLane="best" departSpeed="desired" id="ST_46"
            route="ST"/>
   <vehicle depart="17968.5093" departLane="best" departSpeed="desired" id="ST_47"
            route="ST"/>
   <vehicle depart="18645.5093" departLane="best" departSpeed="desired" id="ST_48"
            route="ST"/>
   <vehicle depart="18901.5093" departLane="best" departSpeed="desired" id="ST_49"
            route="ST"/>
   <vehicle depart="19122.5093" departLane="best" departSpeed="desired" id="ST_50"
            route="ST"/>
   <vehicle depart="20216.5093" departLane="best" departSpeed="desired" id="ST_51"
            route="ST"/>
   <vehicle depart="20562.5093" departLane="best" departSpeed="desired" id="ST_52"
            route="ST"/>
   <vehicle depart="20565.5093" departLane="best" departSpeed="desired" id="ST_53"
            route="ST"/>
   <vehicle depart="20574.5093" departLane="best" departSpeed="desired" id="ST_54"
            route="ST"/>
   <vehicle depart="20642.5093" departLane="best" departSpeed="desired" id="ST_55"
            route="ST"/>
   <vehicle depart="20754.5093" departLane="best" departSpeed="desired" id="ST_56"
            route="ST"/>
   <vehicle depart="20766.5093" departLane="best" departSpeed="desired" id="ST_57"
            route="ST"/>
   <vehicle depart="20770.5093" departLane="best" departSpeed="desired" id="ST_58"
            route="ST"/>
   <vehicle depart="20988.5093" departLane="best" departSpeed="desired" id="ST_59"
            route="ST"/>
   <vehicle depart="20996.5093" departLane="best" departSpeed="desired" id="ST_60"
            route="ST"/>
   <vehicle depart="21001.5093" departLane="best" departSpeed="desired" id="ST_61"
            route="ST"/>
   <vehicle depart="21006.5093" departLane="best" departSpeed="desired" id="ST_62"
            route="ST"/>
   <vehicle depart="21026.5093" departLane="best" departSpeed="desired" id="ST_63"
            route="ST"/>
   <vehicle depart="21037.5093" departLane="best" departSpeed="desired" id="ST_64"
            route="ST"/>
   <vehicle depart="21110.5093" departLane="best" departSpeed="desired" id="ST_65"
            route="ST"/>
   <vehicle depart="21141.5093" departLane="best" departSpeed="desired" id="ST_66"
            route="ST"/>
   <vehicle depart="21325.5093" departLane="best" departSpeed="desired" id="ST_67"
            route="ST"/>
   <vehicle depart="21393.5093" departLane="best" departSpeed="desired" id="ST_68"
            route="ST"/>
   <vehicle depart="21461.5093" departLane="best" departSpeed="desired" id="ST_69"
            route="ST"/>
   <vehicle depart="21464.5093" departLane="best" departSpeed="desired" id="ST_70"
            route="ST"/>
   <vehicle depart="21584.5093" departLane="best" departSpeed="desired" id="ST_71"
            route="ST"/>
   <vehicle depart="21626.5093" departLane="best" departSpeed="desired" id="ST_72"
            route="ST"/>
   <vehicle depart="21689.5093" departLane="best" departSpeed="desired" id="ST_73"
            route="ST"/>
   <vehicle depart="21813.5093" departLane="best" departSpeed="desired" id="ST_74"
            route="ST"/>
   <vehicle depart="21840.5093" departLane="best" departSpeed="desired" id="ST_75"
            route="ST"/>
   <vehicle depart="21841.5093" departLane="best" departSpeed="desired" id="ST_76"
            route="ST"/>
   <vehicle depart="21892.5093" departLane="best" departSpeed="desired" id="ST_77"
            route="ST"/>
   <!--vehicle depart="21946.5093" departLane="best" departSpeed="desired" id="ST_78"
            route="ST"/-->
   <vehicle depart="22329.5093" departLane="best" departSpeed="desired" id="ST_79"
            route="ST"/>
   <vehicle depart="22337.5093" departLane="best" departSpeed="desired" id="ST_80"
            route="ST"/>
   <vehicle depart="22501.5093" departLane="best" departSpeed="desired" id="ST_81"
            route="ST"/>
   <vehicle depart="22512.5093" departLane="best" departSpeed="desired" id="ST_82"
            route="ST"/>
   <vehicle depart="22575.5093" departLane="best" departSpeed="desired" id="ST_83"
            route="ST"/>
   <vehicle depart="22584.5093" departLane="best" departSpeed="desired" id="ST_84"
            route="ST"/>
   <vehicle depart="22591.5093" departLane="best" departSpeed="desired" id="ST_85"
            route="ST"/>
   <vehicle depart="22643.5093" departLane="best" departSpeed="desired" id="ST_86"
            route="ST"/>
   <vehicle depart="22648.5093" departLane="best" departSpeed="desired" id="ST_87"
            route="ST"/>
   <vehicle depart="22701.5093" departLane="best" departSpeed="desired" id="ST_88"
            route="ST"/>
   <vehicle depart="22905.5093" departLane="best" departSpeed="desired" id="ST_89"
            route="ST"/>
   <vehicle depart="23141.5093" departLane="best" departSpeed="desired" id="ST_90"
            route="ST"/>
   <vehicle depart="23170.5093" departLane="best" departSpeed="desired" id="ST_91"
            route="ST"/>
   <vehicle depart="23214.5093" departLane="best" departSpeed="desired" id="ST_92"
            route="ST"/>
   <vehicle depart="23232.5093" departLane="best" departSpeed="desired" id="ST_93"
            route="ST"/>
   <vehicle depart="23254.5093" departLane="best" departSpeed="desired" id="ST_94"
            route="ST"/>
   <vehicle depart="23257.5093" departLane="best" departSpeed="desired" id="ST_95"
            route="ST"/>
   <vehicle depart="23274.5093" departLane="best" departSpeed="desired" id="ST_96"
            route="ST"/>
   <vehicle depart="23286.5093" departLane="best" departSpeed="desired" id="ST_97"
            route="ST"/>
   <vehicle depart="23288.5093" departLane="best" departSpeed="desired" id="ST_98"
            route="ST"/>
   <vehicle depart="23463.5093" departLane="best" departSpeed="desired" id="ST_99"
            route="ST"/>
   <vehicle depart="23789.5093" departLane="best" departSpeed="desired" id="ST_100"
            route="ST"/>
   <vehicle depart="23813.5093" departLane="best" departSpeed="desired" id="ST_101"
            route="ST"/>
   <vehicle depart="23852.5093" departLane="best" departSpeed="desired" id="ST_102"
            route="ST"/>
   <vehicle depart="23899.5093" departLane="best" departSpeed="desired" id="ST_103"
            route="ST"/>
   <vehicle depart="23977.5093" departLane="best" departSpeed="desired" id="ST_104"
            route="ST"/>
   <vehicle depart="23993.5093" departLane="best" departSpeed="desired" id="ST_105"
            route="ST"/>
   <vehicle depart="24105.5093" departLane="best" departSpeed="desired" id="ST_106"
            route="ST"/>
   <vehicle depart="24130.5093" departLane="best" departSpeed="desired" id="ST_107"
            route="ST"/>
   <vehicle depart="24179.5093" departLane="best" departSpeed="desired" id="ST_108"
            route="ST"/>
   <vehicle depart="24193.5093" departLane="best" departSpeed="desired" id="ST_109"
            route="ST"/>
   <vehicle depart="24205.5093" departLane="best" departSpeed="desired" id="ST_110"
            route="ST"/>
   <vehicle depart="24228.5093" departLane="best" departSpeed="desired" id="ST_111"
            route="ST"/>
   <vehicle depart="24358.5093" departLane="best" departSpeed="desired" id="ST_112"
            route="ST"/>
   <vehicle depart="24501.5093" departLane="best" departSpeed="desired" id="ST_113"
            route="ST"/>
   <vehicle depart="24518.5093" departLane="best" departSpeed="desired" id="ST_114"
            route="ST"/>
   <vehicle depart="24523.5093" departLane="best" departSpeed="desired" id="ST_115"
            route="ST"/>
   <vehicle depart="24570.5093" departLane="best" departSpeed="desired" id="ST_116"
            route="ST"/>
   <vehicle depart="24618.5093" departLane="best" departSpeed="desired" id="ST_117"
            route="ST"/>
   <vehicle depart="24618.5093" departLane="best" departSpeed="desired" id="ST_118"
            route="ST"/>
   <vehicle depart="24619.5093" departLane="best" departSpeed="desired" id="ST_119"
            route="ST"/>
   <vehicle depart="24659.5093" departLane="best" departSpeed="desired" id="ST_120"
            route="ST"/>
   <vehicle depart="24663.5093" departLane="best" departSpeed="desired" id="ST_121"
            route="ST"/>
   <vehicle depart="24664.5093" departLane="best" departSpeed="desired" id="ST_122"
            route="ST"/>
   <vehicle depart="24666.5093" departLane="best" departSpeed="desired" id="ST_123"
            route="ST"/>
   <vehicle depart="24702.5093" departLane="best" departSpeed="desired" id="ST_124"
            route="ST"/>
   <vehicle depart="24702.5093" departLane="best" departSpeed="desired" id="ST_125"
            route="ST"/>
   <vehicle depart="24705.5093" departLane="best" departSpeed="desired" id="ST_126"
            route="ST"/>
   <vehicle depart="24719.5093" departLane="best" departSpeed="desired" id="ST_127"
            route="ST"/>
   <vehicle depart="24760.5093" departLane="best" departSpeed="desired" id="ST_128"
            route="ST"/>
   <vehicle depart="24860.5093" departLane="best" departSpeed="desired" id="ST_129"
            route="ST"/>
   <vehicle depart="24863.5093" departLane="best" departSpeed="desired" id="ST_130"
            route="ST"/>
   <vehicle depart="24889.5093" departLane="best" departSpeed="desired" id="ST_131"
            route="ST"/>
   <vehicle depart="24900.5093" departLane="best" departSpeed="desired" id="ST_132"
            route="ST"/>
   <vehicle depart="24916.5093" departLane="best" departSpeed="desired" id="ST_133"
            route="ST"/>
   <vehicle depart="24924.5093" departLane="best" departSpeed="desired" id="ST_134"
            route="ST"/>
   <vehicle depart="24929.5093" departLane="best" departSpeed="desired" id="ST_135"
            route="ST"/>
   <vehicle depart="24945.5093" departLane="best" departSpeed="desired" id="ST_136"
            route="ST"/>
   <vehicle depart="24976.5093" departLane="best" departSpeed="desired" id="ST_137"
            route="ST"/>
   <vehicle depart="25026.5093" departLane="best" departSpeed="desired" id="ST_138"
            route="ST"/>
   <vehicle depart="25078.5093" departLane="best" departSpeed="desired" id="ST_139"
            route="ST"/>
   <vehicle depart="25103.5093" departLane="best" departSpeed="desired" id="ST_140"
            route="ST"/>
   <vehicle depart="25106.5093" departLane="best" departSpeed="desired" id="ST_141"
            route="ST"/>
   <vehicle depart="25117.5093" departLane="best" departSpeed="desired" id="ST_142"
            route="ST"/>
   <vehicle depart="25159.5093" departLane="best" departSpeed="desired" id="ST_143"
            route="ST"/>
   <vehicle depart="25240.5093" departLane="best" departSpeed="desired" id="ST_144"
            route="ST"/>
   <vehicle depart="25244.5093" departLane="best" departSpeed="desired" id="ST_145"
            route="ST"/>
   <vehicle depart="25248.5093" departLane="best" departSpeed="desired" id="ST_146"
            route="ST"/>
   <vehicle depart="25279.5093" departLane="best" departSpeed="desired" id="ST_147"
            route="ST"/>
   <vehicle depart="25284.5093" departLane="best" departSpeed="desired" id="ST_148"
            route="ST"/>
   <vehicle depart="25284.5093" departLane="best" departSpeed="desired" id="ST_149"
            route="ST"/>
   <vehicle depart="25317.5093" departLane="best" departSpeed="desired" id="ST_150"
            route="ST"/>
   <vehicle depart="25443.5093" departLane="best" departSpeed="desired" id="ST_151"
            route="ST"/>
   <vehicle depart="25457.5093" departLane="best" departSpeed="desired" id="ST_152"
            route="ST"/>
   <vehicle depart="25529.5093" departLane="best" departSpeed="desired" id="ST_153"
            route="ST"/>
   <vehicle depart="25536.5093" departLane="best" departSpeed="desired" id="ST_154"
            route="ST"/>
   <vehicle depart="25545.5093" departLane="best" departSpeed="desired" id="ST_155"
            route="ST"/>
   <vehicle depart="25581.5093" departLane="best" departSpeed="desired" id="ST_156"
            route="ST"/>
   <vehicle depart="25613.5093" departLane="best" departSpeed="desired" id="ST_157"
            route="ST"/>
   <vehicle depart="25674.5093" departLane="best" departSpeed="desired" id="ST_158"
            route="ST"/>
   <vehicle depart="25691.5093" departLane="best" departSpeed="desired" id="ST_159"
            route="ST"/>
   <vehicle depart="25708.5093" departLane="best" departSpeed="desired" id="ST_160"
            route="ST"/>
   <vehicle depart="25732.5093" departLane="best" departSpeed="desired" id="ST_161"
            route="ST"/>
   <vehicle depart="25738.5093" departLane="best" departSpeed="desired" id="ST_162"
            route="ST"/>
   <vehicle depart="25819.5093" departLane="best" departSpeed="desired" id="ST_163"
            route="ST"/>
   <vehicle depart="25825.5093" departLane="best" departSpeed="desired" id="ST_164"
            route="ST"/>
   <vehicle depart="25834.5093" departLane="best" departSpeed="desired" id="ST_165"
            route="ST"/>
   <vehicle depart="25884.5093" departLane="best" departSpeed="desired" id="ST_166"
            route="ST"/>
   <vehicle depart="25948.5093" departLane="best" departSpeed="desired" id="ST_167"
            route="ST"/>
   <vehicle depart="25964.5093" departLane="best" departSpeed="desired" id="ST_168"
            route="ST"/>
   <vehicle depart="25965.5093" departLane="best" departSpeed="desired" id="ST_169"
            route="ST"/>
   <vehicle depart="26000.5093" departLane="best" departSpeed="desired" id="ST_170"
            route="ST"/>
   <vehicle depart="26032.5093" departLane="best" departSpeed="desired" id="ST_171"
            route="ST"/>
   <vehicle depart="26035.5093" departLane="best" departSpeed="desired" id="ST_172"
            route="ST"/>
   <vehicle depart="26042.5093" departLane="best" departSpeed="desired" id="ST_173"
            route="ST"/>
   <vehicle depart="26067.5093" departLane="best" departSpeed="desired" id="ST_174"
            route="ST"/>
   <vehicle depart="26072.5093" departLane="best" departSpeed="desired" id="ST_175"
            route="ST"/>
   <vehicle depart="26081.5093" departLane="best" departSpeed="desired" id="ST_176"
            route="ST"/>
   <vehicle depart="26090.5093" departLane="best" departSpeed="desired" id="ST_177"
            route="ST"/>
   <vehicle depart="26169.5093" departLane="best" departSpeed="desired" id="ST_178"
            route="ST"/>
   <vehicle depart="26179.5093" departLane="best" departSpeed="desired" id="ST_179"
            route="ST"/>
   <vehicle depart="26188.5093" departLane="best" departSpeed="desired" id="ST_180"
            route="ST"/>
   <vehicle depart="26223.5093" departLane="best" departSpeed="desired" id="ST_181"
            route="ST"/>
   <vehicle depart="26235.5093" departLane="best" departSpeed="desired" id="ST_182"
            route="ST"/>
   <vehicle depart="26274.5093" departLane="best" departSpeed="desired" id="ST_183"
            route="ST"/>
   <vehicle depart="26282.5093" departLane="best" departSpeed="desired" id="ST_184"
            route="ST"/>
   <vehicle depart="26296.5093" departLane="best" departSpeed="desired" id="ST_185"
            route="ST"/>
   <vehicle depart="26302.5093" departLane="best" departSpeed="desired" id="ST_186"
            route="ST"/>
   <vehicle depart="26366.5093" departLane="best" departSpeed="desired" id="ST_187"
            route="ST"/>
   <vehicle depart="26378.5093" departLane="best" departSpeed="desired" id="ST_188"
            route="ST"/>
   <vehicle depart="26444.5093" departLane="best" departSpeed="desired" id="ST_189"
            route="ST"/>
   <vehicle depart="26458.5093" departLane="best" departSpeed="desired" id="ST_190"
            route="ST"/>
   <vehicle depart="26461.5093" departLane="best" departSpeed="desired" id="ST_191"
            route="ST"/>
   <vehicle depart="26477.5093" departLane="best" departSpeed="desired" id="ST_192"
            route="ST"/>
   <vehicle depart="26515.5093" departLane="best" departSpeed="desired" id="ST_193"
            route="ST"/>
   <vehicle depart="26526.5093" departLane="best" departSpeed="desired" id="ST_194"
            route="ST"/>
   <vehicle depart="26544.5093" departLane="best" departSpeed="desired" id="ST_195"
            route="ST"/>
   <vehicle depart="26551.5093" departLane="best" departSpeed="desired" id="ST_196"
            route="ST"/>
   <vehicle depart="26572.5093" departLane="best" departSpeed="desired" id="ST_197"
            route="ST"/>
   <vehicle depart="26578.5093" departLane="best" departSpeed="desired" id="ST_198"
            route="ST"/>
   <vehicle depart="26588.5093" departLane="best" departSpeed="desired" id="ST_199"
            route="ST"/>
   <vehicle depart="26618.5093" departLane="best" departSpeed="desired" id="ST_200"
            route="ST"/>
   <vehicle depart="26618.5093" departLane="best" departSpeed="desired" id="ST_201"
            route="ST"/>
   <vehicle depart="26649.5093" departLane="best" departSpeed="desired" id="ST_202"
            route="ST"/>
   <vehicle depart="26663.5093" departLane="best" departSpeed="desired" id="ST_203"
            route="ST"/>
   <vehicle depart="26663.5093" departLane="best" departSpeed="desired" id="ST_204"
            route="ST"/>
   <vehicle depart="26666.5093" departLane="best" departSpeed="desired" id="ST_205"
            route="ST"/>
   <vehicle depart="26689.5093" departLane="best" departSpeed="desired" id="ST_206"
            route="ST"/>
   <vehicle depart="26701.5093" departLane="best" departSpeed="desired" id="ST_207"
            route="ST"/>
   <vehicle depart="26703.5093" departLane="best" departSpeed="desired" id="ST_208"
            route="ST"/>
   <vehicle depart="26716.5093" departLane="best" departSpeed="desired" id="ST_209"
            route="ST"/>
   <vehicle depart="26741.5093" departLane="best" departSpeed="desired" id="ST_210"
            route="ST"/>
   <vehicle depart="26766.5093" departLane="best" departSpeed="desired" id="ST_211"
            route="ST"/>
   <vehicle depart="26774.5093" departLane="best" departSpeed="desired" id="ST_212"
            route="ST"/>
   <vehicle depart="26779.5093" departLane="best" departSpeed="desired" id="ST_213"
            route="ST"/>
   <vehicle depart="26783.5093" departLane="best" departSpeed="desired" id="ST_214"
            route="ST"/>
   <vehicle depart="26789.5093" departLane="best" departSpeed="desired" id="ST_215"
            route="ST"/>
   <vehicle depart="26812.5093" departLane="best" departSpeed="desired" id="ST_216"
            route="ST"/>
   <vehicle depart="26822.5093" departLane="best" departSpeed="desired" id="ST_217"
            route="ST"/>
   <vehicle depart="26828.5093" departLane="best" departSpeed="desired" id="ST_218"
            route="ST"/>
   <vehicle depart="26863.5093" departLane="best" departSpeed="desired" id="ST_219"
            route="ST"/>
   <vehicle depart="26893.5093" departLane="best" departSpeed="desired" id="ST_220"
            route="ST"/>
   <vehicle depart="26898.5093" departLane="best" departSpeed="desired" id="ST_221"
            route="ST"/>
   <vehicle depart="26907.5093" departLane="best" departSpeed="desired" id="ST_222"
            route="ST"/>
   <vehicle depart="26913.5093" departLane="best" departSpeed="desired" id="ST_223"
            route="ST"/>
   <vehicle depart="26921.5093" departLane="best" departSpeed="desired" id="ST_224"
            route="ST"/>
   <vehicle depart="26960.5093" departLane="best" departSpeed="desired" id="ST_225"
            route="ST"/>
   <vehicle depart="26964.5093" departLane="best" departSpeed="desired" id="ST_226"
            route="ST"/>
   <vehicle depart="26989.5093" departLane="best" departSpeed="desired" id="ST_227"
            route="ST"/>
   <vehicle depart="27017.5093" departLane="best" departSpeed="desired" id="ST_228"
            route="ST"/>
   <vehicle depart="27019.5093" departLane="best" departSpeed="desired" id="ST_229"
            route="ST"/>
   <vehicle depart="27025.5093" departLane="best" departSpeed="desired" id="ST_230"
            route="ST"/>
   <vehicle depart="27031.5093" departLane="best" departSpeed="desired" id="ST_231"
            route="ST"/>
   <vehicle depart="27036.5093" departLane="best" departSpeed="desired" id="ST_232"
            route="ST"/>
   <vehicle depart="27055.5093" departLane="best" departSpeed="desired" id="ST_233"
            route="ST"/>
   <vehicle depart="27056.5093" departLane="best" departSpeed="desired" id="ST_234"
            route="ST"/>
   <vehicle depart="27063.5093" departLane="best" departSpeed="desired" id="ST_235"
            route="ST"/>
   <vehicle depart="27070.5093" departLane="best" departSpeed="desired" id="ST_236"
            route="ST"/>
   <vehicle depart="27091.5093" departLane="best" departSpeed="desired" id="ST_237"
            route="ST"/>
   <vehicle depart="27123.5093" departLane="best" departSpeed="desired" id="ST_238"
            route="ST"/>
   <vehicle depart="27134.5093" departLane="best" departSpeed="desired" id="ST_239"
            route="ST"/>
   <vehicle depart="27135.5093" departLane="best" departSpeed="desired" id="ST_240"
            route="ST"/>
   <vehicle depart="27147.5093" departLane="best" departSpeed="desired" id="ST_241"
            route="ST"/>
   <vehicle depart="27148.5093" departLane="best" departSpeed="desired" id="ST_242"
            route="ST"/>
   <vehicle depart="27149.5093" departLane="best" departSpeed="desired" id="ST_243"
            route="ST"/>
   <vehicle depart="27152.5093" departLane="best" departSpeed="desired" id="ST_244"
            route="ST"/>
   <vehicle depart="27200.5093" departLane="best" departSpeed="desired" id="ST_245"
            route="ST"/>
   <vehicle depart="27256.5093" departLane="best" departSpeed="desired" id="ST_246"
            route="ST"/>
   <vehicle depart="27278.5093" departLane="best" departSpeed="desired" id="ST_247"
            route="ST"/>
   <vehicle depart="27293.5093" departLane="best" departSpeed="desired" id="ST_248"
            route="ST"/>
   <vehicle depart="27315.5093" departLane="best" departSpeed="desired" id="ST_249"
            route="ST"/>
   <vehicle depart="27335.5093" departLane="best" departSpeed="desired" id="ST_250"
            route="ST"/>
   <vehicle depart="27338.5093" departLane="best" departSpeed="desired" id="ST_251"
            route="ST"/>
   <vehicle depart="27362.5093" departLane="best" departSpeed="desired" id="ST_252"
            route="ST"/>
   <vehicle depart="27384.5093" departLane="best" departSpeed="desired" id="ST_253"
            route="ST"/>
   <vehicle depart="27402.5093" departLane="best" departSpeed="desired" id="ST_254"
            route="ST"/>
   <vehicle depart="27407.5093" departLane="best" departSpeed="desired" id="ST_255"
            route="ST"/>
   <vehicle depart="27427.5093" departLane="best" departSpeed="desired" id="ST_256"
            route="ST"/>
   <vehicle depart="27553.5093" departLane="best" departSpeed="desired" id="ST_257"
            route="ST"/>
   <vehicle depart="27558.5093" departLane="best" departSpeed="desired" id="ST_258"
            route="ST"/>
   <vehicle depart="27558.5093" departLane="best" departSpeed="desired" id="ST_259"
            route="ST"/>
   <vehicle depart="27561.5093" departLane="best" departSpeed="desired" id="ST_260"
            route="ST"/>
   <vehicle depart="27573.5093" departLane="best" departSpeed="desired" id="ST_261"
            route="ST"/>
   <vehicle depart="27596.5093" departLane="best" departSpeed="desired" id="ST_262"
            route="ST"/>
   <vehicle depart="27598.5093" departLane="best" departSpeed="desired" id="ST_263"
            route="ST"/>
   <vehicle depart="27603.5093" departLane="best" departSpeed="desired" id="ST_264"
            route="ST"/>
   <vehicle depart="27613.5093" departLane="best" departSpeed="desired" id="ST_265"
            route="ST"/>
   <vehicle depart="27618.5093" departLane="best" departSpeed="desired" id="ST_266"
            route="ST"/>
   <vehicle depart="27645.5093" departLane="best" departSpeed="desired" id="ST_267"
            route="ST"/>
   <vehicle depart="27662.5093" departLane="best" departSpeed="desired" id="ST_268"
            route="ST"/>
   <vehicle depart="27666.5093" departLane="best" departSpeed="desired" id="ST_269"
            route="ST"/>
   <vehicle depart="27675.5093" departLane="best" departSpeed="desired" id="ST_270"
            route="ST"/>
   <vehicle depart="27684.5093" departLane="best" departSpeed="desired" id="ST_271"
            route="ST"/>
   <vehicle depart="27686.5093" departLane="best" departSpeed="desired" id="ST_272"
            route="ST"/>
   <vehicle depart="27693.5093" departLane="best" departSpeed="desired" id="ST_273"
            route="ST"/>
   <vehicle depart="27733.5093" departLane="best" departSpeed="desired" id="ST_274"
            route="ST"/>
   <vehicle depart="27734.5093" departLane="best" departSpeed="desired" id="ST_275"
            route="ST"/>
   <vehicle depart="27806.5093" departLane="best" departSpeed="desired" id="ST_276"
            route="ST"/>