<?xml version="1.0" encoding="utf-8"?>
<routes>
   <route edges="West2 South8EX" id="WL"/>
   <vehicle depart="1727.4387" departLane="best" departSpeed="desired" id="WL_1" route="WL"/>
   <vehicle depart="3153.4387" departLane="best" departSpeed="desired" id="WL_2" route="WL"/>
   <vehicle depart="6226.4387" departLane="best" departSpeed="desired" id="WL_3" route="WL"/>
   <vehicle depart="6924.4387" departLane="best" departSpeed="desired" id="WL_4" route="WL"/>
   <vehicle depart="7434.4387" departLane="best" departSpeed="desired" id="WL_5" route="WL"/>
   <vehicle depart="7635.4387" departLane="best" departSpeed="desired" id="WL_6" route="WL"/>
   <vehicle depart="8307.4387" departLane="best" departSpeed="desired" id="WL_7" route="WL"/>
   <vehicle depart="9019.4387" departLane="best" departSpeed="desired" id="WL_8" route="WL"/>
   <vehicle depart="11275.4387" departLane="best" departSpeed="desired" id="WL_9"
            route="WL"/>
   <vehicle depart="13064.4387" departLane="best" departSpeed="desired" id="WL_10"
            route="WL"/>
   <vehicle depart="14367.4387" departLane="best" departSpeed="desired" id="WL_11"
            route="WL"/>
   <vehicle depart="17775.4387" departLane="best" departSpeed="desired" id="WL_12"
            route="WL"/>
   <vehicle depart="19341.4387" departLane="best" departSpeed="desired" id="WL_13"
            route="WL"/>
   <vehicle depart="20461.4387" departLane="best" departSpeed="desired" id="WL_14"
            route="WL"/>
   <vehicle depart="21015.4387" departLane="best" departSpeed="desired" id="WL_15"
            route="WL"/>
   <vehicle depart="21447.4387" departLane="best" departSpeed="desired" id="WL_16"
            route="WL"/>
   <vehicle depart="21806.4387" departLane="best" departSpeed="desired" id="WL_17"
            route="WL"/>
   <vehicle depart="22709.4387" departLane="best" departSpeed="desired" id="WL_18"
            route="WL"/>
   <vehicle depart="22924.4387" departLane="best" departSpeed="desired" id="WL_19"
            route="WL"/>
   <vehicle depart="23190.4387" departLane="best" departSpeed="desired" id="WL_20"
            route="WL"/>
   <vehicle depart="23470.4387" departLane="best" departSpeed="desired" id="WL_21"
            route="WL"/>
   <vehicle depart="23602.4387" departLane="best" departSpeed="desired" id="WL_22"
            route="WL"/>
   <vehicle depart="24296.4387" departLane="best" departSpeed="desired" id="WL_23"
            route="WL"/>
   <vehicle depart="24401.4387" departLane="best" departSpeed="desired" id="WL_24"
            route="WL"/>
   <vehicle depart="24520.4387" departLane="best" departSpeed="desired" id="WL_25"
            route="WL"/>
   <vehicle depart="24628.4387" departLane="best" departSpeed="desired" id="WL_26"
            route="WL"/>
   <vehicle depart="24811.4387" departLane="best" departSpeed="desired" id="WL_27"
            route="WL"/>
   <vehicle depart="25064.4387" departLane="best" departSpeed="desired" id="WL_28"
            route="WL"/>
   <vehicle depart="25119.4387" departLane="best" departSpeed="desired" id="WL_29"
            route="WL"/>
   <vehicle depart="25265.4387" departLane="best" departSpeed="desired" id="WL_30"
            route="WL"/>
   <vehicle depart="25277.4387" departLane="best" departSpeed="desired" id="WL_31"
            route="WL"/>
   <vehicle depart="25498.4387" departLane="best" departSpeed="desired" id="WL_32"
            route="WL"/>
   <vehicle depart="25570.4387" departLane="best" departSpeed="desired" id="WL_33"
            route="WL"/>
   <vehicle depart="25678.4387" departLane="best" departSpeed="desired" id="WL_34"
            route="WL"/>
   <vehicle depart="25724.4387" departLane="best" departSpeed="desired" id="WL_35"
            route="WL"/>
   <vehicle depart="25729.4387" departLane="best" departSpeed="desired" id="WL_36"
            route="WL"/>
   <vehicle depart="25802.4387" departLane="best" departSpeed="desired" id="WL_37"
            route="WL"/>
   <vehicle depart="25843.4387" departLane="best" departSpeed="desired" id="WL_38"
            route="WL"/>
   <vehicle depart="25965.4387" departLane="best" departSpeed="desired" id="WL_39"
            route="WL"/>
   <vehicle depart="26088.4387" departLane="best" departSpeed="desired" id="WL_40"
            route="WL"/>
   <vehicle depart="26811.4387" departLane="best" departSpeed="desired" id="WL_41"
            route="WL"/>
   <vehicle depart="27080.4387" departLane="best" departSpeed="desired" id="WL_42"
            route="WL"/>
   <vehicle depart="27303.4387" departLane="best" departSpeed="desired" id="WL_43"
            route="WL"/>
   <vehicle depart="27355.4387" departLane="best" departSpeed="desired" id="WL_44"
            route="WL"/>
   <vehicle depart="27445.4387" departLane="best" departSpeed="desired" id="WL_45"
            route="WL"/>
   <vehicle depart="27516.4387" departLane="best" departSpeed="desired" id="WL_46"
            route="WL"/>
   <vehicle depart="27539.4387" departLane="best" departSpeed="desired" id="WL_47"
            route="WL"/>
   <vehicle depart="27556.4387" departLane="best" departSpeed="desired" id="WL_48"
            route="WL"/>
   <vehicle depart="27617.4387" departLane="best" departSpeed="desired" id="WL_49"
            route="WL"/>
   <vehicle depart="27630.4387" departLane="best" departSpeed="desired" id="WL_50"
            route="WL"/>
   <vehicle depart="27755.4387" departLane="best" departSpeed="desired" id="WL_51"
            route="WL"/>
   <vehicle depart="27771.4387" departLane="best" departSpeed="desired" id="WL_52"
            route="WL"/>
   <vehicle depart="27852.4387" departLane="best" departSpeed="desired" id="WL_53"
            route="WL"/>
   <vehicle depart="27855.4387" departLane="best" departSpeed="desired" id="WL_54"
            route="WL"/>
   <vehicle depart="27858.4387" departLane="best" departSpeed="desired" id="WL_55"
            route="WL"/>
   <vehicle depart="28001.4387" departLane="best" departSpeed="desired" id="WL_56"
            route="WL"/>
   <vehicle depart="28076.4387" departLane="best" departSpeed="desired" id="WL_57"
            route="WL"/>
   <vehicle depart="28082.4387" departLane="best" departSpeed="desired" id="WL_58"
            route="WL"/>
   <vehicle depart="28245.4387" departLane="best" departSpeed="desired" id="WL_59"
            route="WL"/>
   <vehicle depart="28261.4387" departLane="best" departSpeed="desired" id="WL_60"
            route="WL"/>
   <vehicle depart="28273.4387" departLane="best" departSpeed="desired" id="WL_61"
            route="WL"/>
   <vehicle depart="28298.4387" departLane="best" departSpeed="desired" id="WL_62"
            route="WL"/>
   <vehicle depart="28305.4387" departLane="best" departSpeed="desired" id="WL_63"
            route="WL"/>
   <vehicle depart="28351.4387" departLane="best" departSpeed="desired" id="WL_64"
            route="WL"/>
   <vehicle depart="28488.4387" departLane="best" departSpeed="desired" id="WL_65"
            route="WL"/>
   <vehicle depart="28492.4387" departLane="best" departSpeed="desired" id="WL_66"
            route="WL"/>
   <vehicle depart="28520.4387" departLane="best" departSpeed="desired" id="WL_67"
            route="WL"/>
   <vehicle depart="28555.4387" departLane="best" departSpeed="desired" id="WL_68"
            route="WL"/>
   <vehicle depart="28592.4387" departLane="best" departSpeed="desired" id="WL_69"
            route="WL"/>
   <vehicle depart="28593.4387" departLane="best" departSpeed="desired" id="WL_70"
            route="WL"/>
   <vehicle depart="28600.4387" departLane="best" departSpeed="desired" id="WL_71"
            route="WL"/>
   <vehicle depart="28609.4387" departLane="best" departSpeed="desired" id="WL_72"
            route="WL"/>
   <vehicle depart="28722.4387" departLane="best" departSpeed="desired" id="WL_73"
            route="WL"/>
   <vehicle depart="28724.4387" departLane="best" departSpeed="desired" id="WL_74"
            route="WL"/>
   <vehicle depart="28809.4387" departLane="best" departSpeed="desired" id="WL_75"
            route="WL"/>
   <vehicle depart="28829.4387" departLane="best" departSpeed="desired" id="WL_76"
            route="WL"/>
   <vehicle depart="28849.4387" departLane="best" departSpeed="desired" id="WL_77"
            route="WL"/>
   <vehicle depart="28991.4387" departLane="best" departSpeed="desired" id="WL_78"
            route="WL"/>
   <vehicle depart="29290.4387" departLane="best" departSpeed="desired" id="WL_79"
            route="WL"/>
   <vehicle depart="29295.4387" departLane="best" departSpeed="desired" id="WL_80"
            route="WL"/>
   <vehicle depart="29496.4387" departLane="best" departSpeed="desired" id="WL_81"
            route="WL"/>
   <vehicle depart="29581.4387" departLane="best" departSpeed="desired" id="WL_82"
            route="WL"/>
   <vehicle depart="29690.4387" departLane="best" departSpeed="desired" id="WL_83"
            route="WL"/>
   <vehicle depart="29720.4387" departLane="best" departSpeed="desired" id="WL_84"
            route="WL"/>
   <vehicle depart="29764.4387" departLane="best" departSpeed="desired" id="WL_85"
            route="WL"/>
   <vehicle depart="29783.4387" departLane="best" departSpeed="desired" id="WL_86"
            route="WL"/>
   <vehicle depart="29845.4387" departLane="best" departSpeed="desired" id="WL_87"
            route="WL"/>
   <vehicle depart="30002.4387" departLane="best" departSpeed="desired" id="WL_88"
            route="WL"/>
   <vehicle depart="30021.4387" departLane="best" departSpeed="desired" id="WL_89"
            route="WL"/>
   <vehicle depart="30310.4387" departLane="best" departSpeed="desired" id="WL_90"
            route="WL"/>
   <vehicle depart="30397.4387" departLane="best" departSpeed="desired" id="WL_91"
            route="WL"/>
   <vehicle depart="30407.4387" departLane="best" departSpeed="desired" id="WL_92"
            route="WL"/>
   <vehicle depart="30455.4387" departLane="best" departSpeed="desired" id="WL_93"
            route="WL"/>
   <vehicle depart="30480.4387" departLane="best" departSpeed="desired" id="WL_94"
            route="WL"/>
   <vehicle depart="30583.4387" departLane="best" departSpeed="desired" id="WL_95"
            route="WL"/>
   <vehicle depart="30592.4387" departLane="best" departSpeed="desired" id="WL_96"
            route="WL"/>
   <vehicle depart="30642.4387" departLane="best" departSpeed="desired" id="WL_97"
            route="WL"/>
   <vehicle depart="30646.4387" departLane="best" departSpeed="desired" id="WL_98"
            route="WL"/>
   <vehicle depart="30689.4387" departLane="best" departSpeed="desired" id="WL_99"
            route="WL"/>
   <vehicle depart="30893.4387" departLane="best" departSpeed="desired" id="WL_100"
            route="WL"/>
   <vehicle depart="30898.4387" departLane="best" departSpeed="desired" id="WL_101"
            route="WL"/>
   <vehicle depart="30935.4387" departLane="best" departSpeed="desired" id="WL_102"
            route="WL"/>
   <vehicle depart="30948.4387" departLane="best" departSpeed="desired" id="WL_103"
            route="WL"/>
   <vehicle depart="30950.4387" departLane="best" departSpeed="desired" id="WL_104"
            route="WL"/>
   <vehicle depart="30965.4387" departLane="best" departSpeed="desired" id="WL_105"
            route="WL"/>
   <vehicle depart="31087.4387" departLane="best" departSpeed="desired" id="WL_106"
            route="WL"/>
   <vehicle depart="31105.4387" departLane="best" departSpeed="desired" id="WL_107"
            route="WL"/>
   <vehicle depart="31280.4387" departLane="best" departSpeed="desired" id="WL_108"
            route="WL"/>
   <vehicle depart="31523.4387" departLane="best" departSpeed="desired" id="WL_109"
            route="WL"/>
   <vehicle depart="31557.4387" departLane="best" departSpeed="desired" id="WL_110"
            route="WL"/>
   <vehicle depart="31590.4387" departLane="best" departSpeed="desired" id="WL_111"
            route="WL"/>
   <vehicle depart="31598.4387" departLane="best" departSpeed="desired" id="WL_112"
            route="WL"/>
   <vehicle depart="31626.4387" departLane="best" departSpeed="desired" id="WL_113"
            route="WL"/>
   <vehicle depart="31678.4387" departLane="best" departSpeed="desired" id="WL_114"
            route="WL"/>
   <vehicle depart="31683.4387" departLane="best" departSpeed="desired" id="WL_115"
            route="WL"/>
   <vehicle depart="31744.4387" departLane="best" departSpeed="desired" id="WL_116"
            route="WL"/>
   <vehicle depart="31753.4387" departLane="best" departSpeed="desired" id="WL_117"
            route="WL"/>
   <vehicle depart="31790.4387" departLane="best" departSpeed="desired" id="WL_118"
            route="WL"/>
   <vehicle depart="31829.4387" departLane="best" departSpeed="desired" id="WL_119"
            route="WL"/>
   <vehicle depart="31833.4387" departLane="best" departSpeed="desired" id="WL_120"
            route="WL"/>
   <vehicle depart="31867.4387" departLane="best" departSpeed="desired" id="WL_121"
            route="WL"/>
   <vehicle depart="31908.4387" departLane="best" departSpeed="desired" id="WL_122"
            route="WL"/>
   <vehicle depart="31967.4387" departLane="best" departSpeed="desired" id="WL_123"
            route="WL"/>
   <vehicle depart="32029.4387" departLane="best" departSpeed="desired" id="WL_124"
            route="WL"/>
   <vehicle depart="32129.4387" departLane="best" departSpeed="desired" id="WL_125"
            route="WL"/>
   <vehicle depart="32158.4387" departLane="best" departSpeed="desired" id="WL_126"
            route="WL"/>
   <vehicle depart="32201.4387" departLane="best" departSpeed="desired" id="WL_127"
            route="WL"/>
   <vehicle depart="32208.4387" departLane="best" departSpeed="desired" id="WL_128"
            route="WL"/>
   <vehicle depart="32250.4387" departLane="best" departSpeed="desired" id="WL_129"
            route="WL"/>
   <vehicle depart="32263.4387" departLane="best" departSpeed="desired" id="WL_130"
            route="WL"/>
   <vehicle depart="32340.4387" departLane="best" departSpeed="desired" id="WL_131"
            route="WL"/>
   <vehicle depart="32341.4387" departLane="best" departSpeed="desired" id="WL_132"
            route="WL"/>
   <vehicle depart="32367.4387" departLane="best" departSpeed="desired" id="WL_133"
            route="WL"/>
   <vehicle depart="32403.4387" departLane="best" departSpeed="desired" id="WL_134"
            route="WL"/>
   <vehicle depart="32414.4387" departLane="best" departSpeed="desired" id="WL_135"
            route="WL"/>
   <vehicle depart="32426.4387" departLane="best" departSpeed="desired" id="WL_136"
            route="WL"/>
   <vehicle depart="32427.4387" departLane="best" departSpeed="desired" id="WL_137"
            route="WL"/>
   <vehicle depart="32440.4387" departLane="best" departSpeed="desired" id="WL_138"
            route="WL"/>
   <vehicle depart="32464.4387" departLane="best" departSpeed="desired" id="WL_139"
            route="WL"/>
   <vehicle depart="32692.4387" departLane="best" departSpeed="desired" id="WL_140"
            route="WL"/>
   <vehicle depart="32697.4387" departLane="best" departSpeed="desired" id="WL_141"
            route="WL"/>
   <vehicle depart="32725.4387" departLane="best" departSpeed="desired" id="WL_142"
            route="WL"/>
   <vehicle depart="33023.4387" departLane="best" departSpeed="desired" id="WL_143"
            route="WL"/>
   <vehicle depart="33028.4387" departLane="best" departSpeed="desired" id="WL_144"
            route="WL"/>
   <vehicle depart="33078.4387" departLane="best" departSpeed="desired" id="WL_145"
            route="WL"/>
   <vehicle depart="33130.4387" departLane="best" departSpeed="desired" id="WL_146"
            route="WL"/>
   <vehicle depart="33142.4387" departLane="best" departSpeed="desired" id="WL_147"
            route="WL"/>
   <vehicle depart="33235.4387" departLane="best" departSpeed="desired" id="WL_148"
            route="WL"/>
   <vehicle depart="33343.4387" departLane="best" departSpeed="desired" id="WL_149"
            route="WL"/>
   <vehicle depart="33360.4387" departLane="best" departSpeed="desired" id="WL_150"
            route="WL"/>
   <vehicle depart="33387.4387" departLane="best" departSpeed="desired" id="WL_151"
            route="WL"/>
   <vehicle depart="33400.4387" departLane="best" departSpeed="desired" id="WL_152"
            route="WL"/>
   <vehicle depart="33413.4387" departLane="best" departSpeed="desired" id="WL_153"
            route="WL"/>
   <vehicle depart="33463.4387" departLane="best" departSpeed="desired" id="WL_154"
            route="WL"/>
   <vehicle depart="33522.4387" departLane="best" departSpeed="desired" id="WL_155"
            route="WL"/>
   <vehicle depart="33765.4387" departLane="best" departSpeed="desired" id="WL_156"
            route="WL"/>
   <vehicle depart="33777.4387" departLane="best" departSpeed="desired" id="WL_157"
            route="WL"/>
   <vehicle depart="33787.4387" departLane="best" departSpeed="desired" id="WL_158"
            route="WL"/>
   <vehicle depart="33871.4387" departLane="best" departSpeed="desired" id="WL_159"
            route="WL"/>
   <vehicle depart="33983.4387" departLane="best" departSpeed="desired" id="WL_160"
            route="WL"/>
   <vehicle depart="34032.4387" departLane="best" departSpeed="desired" id="WL_161"
            route="WL"/>
   <vehicle depart="34049.4387" departLane="best" departSpeed="desired" id="WL_162"
            route="WL"/>
   <vehicle depart="34061.4387" departLane="best" departSpeed="desired" id="WL_163"
            route="WL"/>
   <vehicle depart="34174.4387" departLane="best" departSpeed="desired" id="WL_164"
            route="WL"/>
   <vehicle depart="34245.4387" departLane="best" departSpeed="desired" id="WL_165"
            route="WL"/>
   <vehicle depart="34251.4387" departLane="best" departSpeed="desired" id="WL_166"
            route="WL"/>
   <vehicle depart="34259.4387" departLane="best" departSpeed="desired" id="WL_167"
            route="WL"/>
   <vehicle depart="34286.4387" departLane="best" departSpeed="desired" id="WL_168"
            route="WL"/>
   <vehicle depart="34306.4387" departLane="best" departSpeed="desired" id="WL_169"
            route="WL"/>
   <vehicle depart="34335.4387" departLane="best" departSpeed="desired" id="WL_170"
            route="WL"/>
   <vehicle depart="34339.4387" departLane="best" departSpeed="desired" id="WL_171"
            route="WL"/>
   <vehicle depart="34366.4387" departLane="best" departSpeed="desired" id="WL_172"
            route="WL"/>
   <vehicle depart="34383.4387" departLane="best" departSpeed="desired" id="WL_173"
            route="WL"/>
   <vehicle depart="34452.4387" departLane="best" departSpeed="desired" id="WL_174"
            route="WL"/>
   <vehicle depart="34521.4387" departLane="best" departSpeed="desired" id="WL_175"
            route="WL"/>
   <vehicle depart="34524.4387" departLane="best" departSpeed="desired" id="WL_176"
            route="WL"/>
   <vehicle depart="34546.4387" departLane="best" departSpeed="desired" id="WL_177"
            route="WL"/>
   <vehicle depart="34678.4387" departLane="best" departSpeed="desired" id="WL_178"
            route="WL"/>
   <vehicle depart="34689.4387" departLane="best" departSpeed="desired" id="WL_179"
            route="WL"/>
   <vehicle depart="34716.4387" departLane="best" departSpeed="desired" id="WL_180"
            route="WL"/>
   <vehicle depart="34741.4387" departLane="best" departSpeed="desired" id="WL_181"
            route="WL"/>
   <vehicle depart="34756.4387" departLane="best" departSpeed="desired" id="WL_182"
            route="WL"/>
   <vehicle depart="34767.4387" departLane="best" departSpeed="desired" id="WL_183"
            route="WL"/>
   <vehicle depart="34772.4387" departLane="best" departSpeed="desired" id="WL_184"
            route="WL"/>
   <vehicle depart="34779.4387" departLane="best" departSpeed="desired" id="WL_185"
            route="WL"/>
   <vehicle depart="34836.4387" departLane="best" departSpeed="desired" id="WL_186"
            route="WL"/>
   <vehicle depart="34862.4387" departLane="best" departSpeed="desired" id="WL_187"
            route="WL"/>
   <vehicle depart="34876.4387" departLane="best" departSpeed="desired" id="WL_188"
            route="WL"/>
   <vehicle depart="34888.4387" departLane="best" departSpeed="desired" id="WL_189"
            route="WL"/>
   <vehicle depart="34915.4387" departLane="best" departSpeed="desired" id="WL_190"
            route="WL"/>
   <vehicle depart="34951.4387" departLane="best" departSpeed="desired" id="WL_191"
            route="WL"/>
   <vehicle depart="34952.4387" departLane="best" departSpeed="desired" id="WL_192"
            route="WL"/>
   <vehicle depart="34971.4387" departLane="best" departSpeed="desired" id="WL_193"
            route="WL"/>
   <vehicle depart="34986.4387" departLane="best" departSpeed="desired" id="WL_194"
            route="WL"/>
   <vehicle depart="34999.4387" departLane="best" departSpeed="desired" id="WL_195"
            route="WL"/>
   <vehicle depart="35035.4387" departLane="best" departSpeed="desired" id="WL_196"
            route="WL"/>
   <vehicle depart="35043.4387" departLane="best" departSpeed="desired" id="WL_197"
            route="WL"/>
   <vehicle depart="35048.4387" departLane="best" departSpeed="desired" id="WL_198"
            route="WL"/>
   <vehicle depart="35080.4387" departLane="best" departSpeed="desired" id="WL_199"
            route="WL"/>
   <vehicle depart="35134.4387" departLane="best" departSpeed="desired" id="WL_200"
            route="WL"/>
   <vehicle depart="35151.4387" departLane="best" departSpeed="desired" id="WL_201"
            route="WL"/>
   <vehicle depart="35184.4387" departLane="best" departSpeed="desired" id="WL_202"
            route="WL"/>
   <vehicle depart="35230.4387" departLane="best" departSpeed="desired" id="WL_203"
            route="WL"/>
   <vehicle depart="35231.4387" departLane="best" departSpeed="desired" id="WL_204"
            route="WL"/>
   <vehicle depart="35246.4387" departLane="best" departSpeed="desired" id="WL_205"
            route="WL"/>
   <vehicle depart="35255.4387" departLane="best" departSpeed="desired" id="WL_206"
            route="WL"/>
   <vehicle depart="35338.4387" departLane="best" departSpeed="desired" id="WL_207"
            route="WL"/>
   <vehicle depart="35373.4387" departLane="best" departSpeed="desired" id="WL_208"
            route="WL"/>
   <vehicle depart="35383.4387" departLane="best" departSpeed="desired" id="WL_209"
            route="WL"/>
   <vehicle depart="35393.4387" departLane="best" departSpeed="desired" id="WL_210"
            route="WL"/>
   <vehicle depart="35412.4387" departLane="best" departSpeed="desired" id="WL_211"
            route="WL"/>
   <vehicle depart="35413.4387" departLane="best" departSpeed="desired" id="WL_212"
            route="WL"/>
   <vehicle depart="35538.4387" departLane="best" departSpeed="desired" id="WL_213"
            route="WL"/>
   <vehicle depart="35557.4387" departLane="best" departSpeed="desired" id="WL_214"
            route="WL"/>
   <vehicle depart="35590.4387" departLane="best" departSpeed="desired" id="WL_215"
            route="WL"/>
   <vehicle depart="35632.4387" departLane="best" departSpeed="desired" id="WL_216"
            route="WL"/>
   <vehicle depart="35634.4387" departLane="best" departSpeed="desired" id="WL_217"
            route="WL"/>
   <vehicle depart="35687.4387" departLane="best" departSpeed="desired" id="WL_218"
            route="WL"/>
   <vehicle depart="35708.4387" departLane="best" departSpeed="desired" id="WL_219"
            route="WL"/>
   <vehicle depart="35760.4387" departLane="best" departSpeed="desired" id="WL_220"
            route="WL"/>
   <vehicle depart="35788.4387" departLane="best" departSpeed="desired" id="WL_221"
            route="WL"/>
   <vehicle depart="35796.4387" departLane="best" departSpeed="desired" id="WL_222"
            route="WL"/>
   <vehicle depart="35805.4387" departLane="best" departSpeed="desired" id="WL_223"
            route="WL"/>
   <vehicle depart="35824.4387" departLane="best" departSpeed="desired" id="WL_224"
            route="WL"/>
   <vehicle depart="35844.4387" departLane="best" departSpeed="desired" id="WL_225"
            route="WL"/>
   <vehicle depart="35874.4387" departLane="best" departSpeed="desired" id="WL_226"
            route="WL"/>
   <vehicle depart="35938.4387" departLane="best" departSpeed="desired" id="WL_227"
            route="WL"/>
   <vehicle depart="35977.4387" departLane="best" departSpeed="desired" id="WL_228"
            route="WL"/>
   <vehicle depart="36116.4387" departLane="best" departSpeed="desired" id="WL_229"
            route="WL"/>
   <vehicle depart="36201.4387" departLane="best" departSpeed="desired" id="WL_230"
            route="WL"/>
   <vehicle depart="36265.4387" departLane="best" departSpeed="desired" id="WL_231"
            route="WL"/>
   <vehicle depart="36337.4387" departLane="best" departSpeed="desired" id="WL_232"
            route="WL"/>
   <vehicle depart="36341.4387" departLane="best" departSpeed="desired" id="WL_233"
            route="WL"/>
   <vehicle depart="36400.4387" departLane="best" departSpeed="desired" id="WL_234"
            route="WL"/>
   <vehicle depart="36415.4387" departLane="best" departSpeed="desired" id="WL_235"
            route="WL"/>
   <vehicle depart="36432.4387" departLane="best" departSpeed="desired" id="WL_236"
            route="WL"/>
   <vehicle depart="36482.4387" departLane="best" departSpeed="desired" id="WL_237"
            route="WL"/>
   <vehicle depart="36489.4387" departLane="best" departSpeed="desired" id="WL_238"
            route="WL"/>
   <vehicle depart="36494.4387" departLane="best" departSpeed="desired" id="WL_239"
            route="WL"/>
   <vehicle depart="36547.4387" departLane="best" departSpeed="desired" id="WL_240"
            route="WL"/>
   <vehicle depart="36576.4387" departLane="best" departSpeed="desired" id="WL_241"
            route="WL"/>
   <vehicle depart="36602.4387" departLane="best" departSpeed="desired" id="WL_242"
            route="WL"/>
   <vehicle depart="36655.4387" departLane="best" departSpeed="desired" id="WL_243"
            route="WL"/>
   <vehicle depart="36674.4387" departLane="best" departSpeed="desired" id="WL_244"
            route="WL"/>
   <vehicle depart="36750.4387" departLane="best" departSpeed="desired" id="WL_245"
            route="WL"/>
   <vehicle depart="36756.4387" departLane="best" departSpeed="desired" id="WL_246"
            route="WL"/>
   <vehicle depart="36788.4387" departLane="best" departSpeed="desired" id="WL_247"
            route="WL"/>
   <vehicle depart="36818.4387" departLane="best" departSpeed="desired" id="WL_248"
            route="WL"/>
   <vehicle depart="36833.4387" departLane="best" departSpeed="desired" id="WL_249"
            route="WL"/>
   <vehicle depart="36868.4387" departLane="best" departSpeed="desired" id="WL_250"
            route="WL"/>
   <vehicle depart="36881.4387" departLane="best" departSpeed="desired" id="WL_251"
            route="WL"/>
   <vehicle depart="36888.4387" departLane="best" departSpeed="desired" id="WL_252"
            route="WL"/>
   <vehicle depart="36963.4387" departLane="best" departSpeed="desired" id="WL_253"
            route="WL"/>
   <vehicle depart="37000.4387" departLane="best" departSpeed="desired" id="WL_254"
            route="WL"/>
   <vehicle depart="37014.4387" departLane="best" departSpeed="desired" id="WL_255"
            route="WL"/>
   <vehicle depart="37023.4387" departLane="best" departSpeed="desired" id="WL_256"
            route="WL"/>
   <vehicle depart="37028.4387" departLane="best" departSpeed="desired" id="WL_257"
            route="WL"/>
   <vehicle depart="37042.4387" departLane="best" departSpeed="desired" id="WL_258"
            route="WL"/>
   <vehicle depart="37042.4387" departLane="best" departSpeed="desired" id="WL_259"
            route="WL"/>
   <vehicle depart="37046.4387" departLane="best" departSpeed="desired" id="WL_260"
            route="WL"/>
   <vehicle depart="37098.4387" departLane="best" departSpeed="desired" id="WL_261"
            route="WL"/>
   <vehicle depart="37131.4387" departLane="best" departSpeed="desired" id="WL_262"
            route="WL"/>
   <vehicle depart="37161.4387" departLane="best" departSpeed="desired" id="WL_263"
            route="WL"/>
   <vehicle depart="37162.4387" departLane="best" departSpeed="desired" id="WL_264"
            route="WL"/>
   <vehicle depart="37218.4387" departLane="best" departSpeed="desired" id="WL_265"
            route="WL"/>
   <vehicle depart="37238.4387" departLane="best" departSpeed="desired" id="WL_266"
            route="WL"/>
   <vehicle depart="37256.4387" departLane="best" departSpeed="desired" id="WL_267"
            route="WL"/>
   <vehicle depart="37288.4387" departLane="best" departSpeed="desired" id="WL_268"
            route="WL"/>
   <vehicle depart="37308.4387" departLane="best" departSpeed="desired" id="WL_269"
            route="WL"/>
   <vehicle depart="37309.4387" departLane="best" departSpeed="desired" id="WL_270"
            route="WL"/>
   <vehicle depart="37365.4387" departLane="best" departSpeed="desired" id="WL_271"
            route="WL"/>
   <vehicle depart="37398.4387" departLane="best" departSpeed="desired" id="WL_272"
            route="WL"/>
   <vehicle depart="37402.4387" departLane="best" departSpeed="desired" id="WL_273"
            route="WL"/>
   <vehicle depart="37459.4387" departLane="best" departSpeed="desired" id="WL_274"
            route="WL"/>
   <vehicle depart="37483.4387" departLane="best" departSpeed="desired" id="WL_275"
            route="WL"/>
   <vehicle depart="37498.4387" departLane="best" departSpeed="desired" id="WL_276"
            route="WL"/>