<?xml version="1.0" encoding="utf-8"?>
<routes>
   <route edges="North8 North8EX" id="NT"/>
   <vehicle depart="23.8233" departLane="best" departSpeed="desired" id="NT_1" route="NT"/>
   <vehicle depart="49.8233" departLane="best" departSpeed="desired" id="NT_2" route="NT"/>
   <vehicle depart="50" departLane="best" departSpeed="desired" id="NT_3" route="NT"/>
   <vehicle depart="73.8233" departLane="best" departSpeed="desired" id="NT_4" route="NT"/>
   <vehicle depart="170.8233" departLane="best" departSpeed="desired" id="NT_5" route="NT"/>
   <vehicle depart="268.8233" departLane="best" departSpeed="desired" id="NT_6" route="NT"/>
   <vehicle depart="292.8233" departLane="best" departSpeed="desired" id="NT_7" route="NT"/>
   <vehicle depart="347.8233" departLane="best" departSpeed="desired" id="NT_8" route="NT"/>
   <vehicle depart="385.8233" departLane="best" departSpeed="desired" id="NT_9" route="NT"/>
   <vehicle depart="417.8233" departLane="best" departSpeed="desired" id="NT_10" route="NT"/>
   <vehicle depart="499.8233" departLane="best" departSpeed="desired" id="NT_11" route="NT"/>
   <vehicle depart="703.8233" departLane="best" departSpeed="desired" id="NT_12" route="NT"/>
   <vehicle depart="808.8233" departLane="best" departSpeed="desired" id="NT_13" route="NT"/>
   <vehicle depart="886.8233" departLane="best" departSpeed="desired" id="NT_14" route="NT"/>
   <vehicle depart="928.8233" departLane="best" departSpeed="desired" id="NT_15" route="NT"/>
   <vehicle depart="1457.8233" departLane="best" departSpeed="desired" id="NT_16"
            route="NT"/>
   <vehicle depart="1569.8233" departLane="best" departSpeed="desired" id="NT_17"
            route="NT"/>
   <vehicle depart="1586.8233" departLane="best" departSpeed="desired" id="NT_18"
            route="NT"/>
   <vehicle depart="1606.8233" departLane="best" departSpeed="desired" id="NT_19"
            route="NT"/>
   <vehicle depart="1683.8233" departLane="best" departSpeed="desired" id="NT_20"
            route="NT"/>
   <vehicle depart="1789.8233" departLane="best" departSpeed="desired" id="NT_21"
            route="NT"/>
   <vehicle depart="1887.8233" departLane="best" departSpeed="desired" id="NT_22"
            route="NT"/>
   <vehicle depart="1939.8233" departLane="best" departSpeed="desired" id="NT_23"
            route="NT"/>
   <vehicle depart="1973.8233" departLane="best" departSpeed="desired" id="NT_24"
            route="NT"/>
   <vehicle depart="2098.8233" departLane="best" departSpeed="desired" id="NT_25"
            route="NT"/>
   <vehicle depart="2175.8233" departLane="best" departSpeed="desired" id="NT_26"
            route="NT"/>
   <vehicle depart="2195.8233" departLane="best" departSpeed="desired" id="NT_27"
            route="NT"/>
   <vehicle depart="2220.8233" departLane="best" departSpeed="desired" id="NT_28"
            route="NT"/>
   <vehicle depart="2303.8233" departLane="best" departSpeed="desired" id="NT_29"
            route="NT"/>
   <vehicle depart="2856.8233" departLane="best" departSpeed="desired" id="NT_30"
            route="NT"/>
   <vehicle depart="2932.8233" departLane="best" departSpeed="desired" id="NT_31"
            route="NT"/>
   <vehicle depart="3081.8233" departLane="best" departSpeed="desired" id="NT_32"
            route="NT"/>
   <vehicle depart="3165.8233" departLane="best" departSpeed="desired" id="NT_33"
            route="NT"/>
   <vehicle depart="3219.8233" departLane="best" departSpeed="desired" id="NT_34"
            route="NT"/>
   <vehicle depart="3236.8233" departLane="best" departSpeed="desired" id="NT_35"
            route="NT"/>
   <vehicle depart="3839.8233" departLane="best" departSpeed="desired" id="NT_36"
            route="NT"/>
   <vehicle depart="3889.8233" departLane="best" departSpeed="desired" id="NT_37"
            route="NT"/>
   <vehicle depart="3969.8233" departLane="best" departSpeed="desired" id="NT_38"
            route="NT"/>
   <vehicle depart="4000.8233" departLane="best" departSpeed="desired" id="NT_39"
            route="NT"/>
   <vehicle depart="4085.8233" departLane="best" departSpeed="desired" id="NT_40"
            route="NT"/>
   <vehicle depart="4168.8233" departLane="best" departSpeed="desired" id="NT_41"
            route="NT"/>
   <vehicle depart="4518.8233" departLane="best" departSpeed="desired" id="NT_42"
            route="NT"/>
   <vehicle depart="4533.8233" departLane="best" departSpeed="desired" id="NT_43"
            route="NT"/>
   <vehicle depart="4587.8233" departLane="best" departSpeed="desired" id="NT_44"
            route="NT"/>
   <vehicle depart="4624.8233" departLane="best" departSpeed="desired" id="NT_45"
            route="NT"/>
   <vehicle depart="4706.8233" departLane="best" departSpeed="desired" id="NT_46"
            route="NT"/>
   <vehicle depart="4899.8233" departLane="best" departSpeed="desired" id="NT_47"
            route="NT"/>
   <vehicle depart="5077.8233" departLane="best" departSpeed="desired" id="NT_48"
            route="NT"/>
   <vehicle depart="5201.8233" departLane="best" departSpeed="desired" id="NT_49"
            route="NT"/>
   <vehicle depart="5289.8233" departLane="best" departSpeed="desired" id="NT_50"
            route="NT"/>
   <vehicle depart="5383.8233" departLane="best" departSpeed="desired" id="NT_51"
            route="NT"/>
   <vehicle depart="5508.8233" departLane="best" departSpeed="desired" id="NT_52"
            route="NT"/>
   <vehicle depart="5551.8233" departLane="best" departSpeed="desired" id="NT_53"
            route="NT"/>
   <vehicle depart="5969.8233" departLane="best" departSpeed="desired" id="NT_54"
            route="NT"/>
   <vehicle depart="6015.8233" departLane="best" departSpeed="desired" id="NT_55"
            route="NT"/>
   <vehicle depart="6532.8233" departLane="best" departSpeed="desired" id="NT_56"
            route="NT"/>
   <vehicle depart="6568.8233" departLane="best" departSpeed="desired" id="NT_57"
            route="NT"/>
   <vehicle depart="6931.8233" departLane="best" departSpeed="desired" id="NT_58"
            route="NT"/>
   <vehicle depart="7000.8233" departLane="best" departSpeed="desired" id="NT_59"
            route="NT"/>
   <vehicle depart="7395.8233" departLane="best" departSpeed="desired" id="NT_60"
            route="NT"/>
   <vehicle depart="7618.8233" departLane="best" departSpeed="desired" id="NT_61"
            route="NT"/>
   <vehicle depart="7728.8233" departLane="best" departSpeed="desired" id="NT_62"
            route="NT"/>
   <vehicle depart="7766.8233" departLane="best" departSpeed="desired" id="NT_63"
            route="NT"/>
   <vehicle depart="7897.8233" departLane="best" departSpeed="desired" id="NT_64"
            route="NT"/>
   <vehicle depart="8142.8233" departLane="best" departSpeed="desired" id="NT_65"
            route="NT"/>
   <vehicle depart="8295.8233" departLane="best" departSpeed="desired" id="NT_66"
            route="NT"/>
   <vehicle depart="8787.8233" departLane="best" departSpeed="desired" id="NT_67"
            route="NT"/>
   <vehicle depart="8851.8233" departLane="best" departSpeed="desired" id="NT_68"
            route="NT"/>
   <vehicle depart="9412.8233" departLane="best" departSpeed="desired" id="NT_69"
            route="NT"/>
   <vehicle depart="9543.8233" departLane="best" departSpeed="desired" id="NT_70"
            route="NT"/>
   <vehicle depart="9994.8233" departLane="best" departSpeed="desired" id="NT_71"
            route="NT"/>
   <vehicle depart="10130.8233" departLane="best" departSpeed="desired" id="NT_72"
            route="NT"/>
   <vehicle depart="10949.8233" departLane="best" departSpeed="desired" id="NT_73"
            route="NT"/>
   <vehicle depart="11067.8233" departLane="best" departSpeed="desired" id="NT_74"
            route="NT"/>
   <vehicle depart="11283.8233" departLane="best" departSpeed="desired" id="NT_75"
            route="NT"/>
   <vehicle depart="11579.8233" departLane="best" departSpeed="desired" id="NT_76"
            route="NT"/>
   <vehicle depart="12411.8233" departLane="best" departSpeed="desired" id="NT_77"
            route="NT"/>
   <vehicle depart="12413.8233" departLane="best" departSpeed="desired" id="NT_78"
            route="NT"/>
   <vehicle depart="13222.8233" departLane="best" departSpeed="desired" id="NT_79"
            route="NT"/>
   <vehicle depart="13682.8233" departLane="best" departSpeed="desired" id="NT_80"
            route="NT"/>
   <vehicle depart="13688.8233" departLane="best" departSpeed="desired" id="NT_81"
            route="NT"/>
   <vehicle depart="13848.8233" departLane="best" departSpeed="desired" id="NT_82"
            route="NT"/>
   <vehicle depart="13885.8233" departLane="best" departSpeed="desired" id="NT_83"
            route="NT"/>
   <vehicle depart="14023.8233" departLane="best" departSpeed="desired" id="NT_84"
            route="NT"/>
   <vehicle depart="14092.8233" departLane="best" departSpeed="desired" id="NT_85"
            route="NT"/>
   <vehicle depart="14626.8233" departLane="best" departSpeed="desired" id="NT_86"
            route="NT"/>
   <vehicle depart="14869.8233" departLane="best" departSpeed="desired" id="NT_87"
            route="NT"/>
   <vehicle depart="14973.8233" departLane="best" departSpeed="desired" id="NT_88"
            route="NT"/>
   <vehicle depart="15118.8233" departLane="best" departSpeed="desired" id="NT_89"
            route="NT"/>
   <vehicle depart="15149.8233" departLane="best" departSpeed="desired" id="NT_90"
            route="NT"/>
   <vehicle depart="15215.8233" departLane="best" departSpeed="desired" id="NT_91"
            route="NT"/>
   <vehicle depart="15372.8233" departLane="best" departSpeed="desired" id="NT_92"
            route="NT"/>
   <vehicle depart="15620.8233" departLane="best" departSpeed="desired" id="NT_93"
            route="NT"/>
   <vehicle depart="15639.8233" departLane="best" departSpeed="desired" id="NT_94"
            route="NT"/>
   <vehicle depart="15717.8233" departLane="best" departSpeed="desired" id="NT_95"
            route="NT"/>
   <vehicle depart="15801.8233" departLane="best" departSpeed="desired" id="NT_96"
            route="NT"/>
   <vehicle depart="15836.8233" departLane="best" departSpeed="desired" id="NT_97"
            route="NT"/>
   <vehicle depart="15877.8233" departLane="best" departSpeed="desired" id="NT_98"
            route="NT"/>
   <vehicle depart="16452.8233" departLane="best" departSpeed="desired" id="NT_99"
            route="NT"/>
   <vehicle depart="16684.8233" departLane="best" departSpeed="desired" id="NT_100"
            route="NT"/>
   <vehicle depart="17205.8233" departLane="best" departSpeed="desired" id="NT_101"
            route="NT"/>
   <vehicle depart="17285.8233" departLane="best" departSpeed="desired" id="NT_102"
            route="NT"/>
   <vehicle depart="17385.8233" departLane="best" departSpeed="desired" id="NT_103"
            route="NT"/>
   <vehicle depart="18042.8233" departLane="best" departSpeed="desired" id="NT_104"
            route="NT"/>
   <vehicle depart="18044.8233" departLane="best" departSpeed="desired" id="NT_105"
            route="NT"/>
   <vehicle depart="18064.8233" departLane="best" departSpeed="desired" id="NT_106"
            route="NT"/>
   <vehicle depart="18401.8233" departLane="best" departSpeed="desired" id="NT_107"
            route="NT"/>
   <vehicle depart="18635.8233" departLane="best" departSpeed="desired" id="NT_108"
            route="NT"/>
   <vehicle depart="18742.8233" departLane="best" departSpeed="desired" id="NT_109"
            route="NT"/>
   <vehicle depart="18769.8233" departLane="best" departSpeed="desired" id="NT_110"
            route="NT"/>
   <vehicle depart="18983.8233" departLane="best" departSpeed="desired" id="NT_111"
            route="NT"/>
   <vehicle depart="19037.8233" departLane="best" departSpeed="desired" id="NT_112"
            route="NT"/>
   <vehicle depart="19157.8233" departLane="best" departSpeed="desired" id="NT_113"
            route="NT"/>
   <vehicle depart="19218.8233" departLane="best" departSpeed="desired" id="NT_114"
            route="NT"/>
   <vehicle depart="19219.8233" departLane="best" departSpeed="desired" id="NT_115"
            route="NT"/>
   <vehicle depart="19357.8233" departLane="best" departSpeed="desired" id="NT_116"
            route="NT"/>
   <vehicle depart="19481.8233" departLane="best" departSpeed="desired" id="NT_117"
            route="NT"/>
   <vehicle depart="19657.8233" departLane="best" departSpeed="desired" id="NT_118"
            route="NT"/>
   <vehicle depart="19825.8233" departLane="best" departSpeed="desired" id="NT_119"
            route="NT"/>
   <vehicle depart="19887.8233" departLane="best" departSpeed="desired" id="NT_120"
            route="NT"/>
   <vehicle depart="19929.8233" departLane="best" departSpeed="desired" id="NT_121"
            route="NT"/>
   <vehicle depart="20036.8233" departLane="best" departSpeed="desired" id="NT_122"
            route="NT"/>
   <vehicle depart="20085.8233" departLane="best" departSpeed="desired" id="NT_123"
            route="NT"/>
   <vehicle depart="20131.8233" departLane="best" departSpeed="desired" id="NT_124"
            route="NT"/>
   <vehicle depart="20278.8233" departLane="best" departSpeed="desired" id="NT_125"
            route="NT"/>
   <vehicle depart="20354.8233" departLane="best" departSpeed="desired" id="NT_126"
            route="NT"/>
   <vehicle depart="20361.8233" departLane="best" departSpeed="desired" id="NT_127"
            route="NT"/>
   <vehicle depart="20407.8233" departLane="best" departSpeed="desired" id="NT_128"
            route="NT"/>
   <vehicle depart="20456.8233" departLane="best" departSpeed="desired" id="NT_129"
            route="NT"/>
   <vehicle depart="20489.8233" departLane="best" departSpeed="desired" id="NT_130"
            route="NT"/>
   <vehicle depart="20540.8233" departLane="best" departSpeed="desired" id="NT_131"
            route="NT"/>
   <vehicle depart="20666.8233" departLane="best" departSpeed="desired" id="NT_132"
            route="NT"/>
   <vehicle depart="21182.8233" departLane="best" departSpeed="desired" id="NT_133"
            route="NT"/>
   <vehicle depart="21258.8233" departLane="best" departSpeed="desired" id="NT_134"
            route="NT"/>
   <vehicle depart="21264.8233" departLane="best" departSpeed="desired" id="NT_135"
            route="NT"/>
   <vehicle depart="21374.8233" departLane="best" departSpeed="desired" id="NT_136"
            route="NT"/>
   <vehicle depart="21456.8233" departLane="best" departSpeed="desired" id="NT_137"
            route="NT"/>
   <vehicle depart="21492.8233" departLane="best" departSpeed="desired" id="NT_138"
            route="NT"/>
   <vehicle depart="21626.8233" departLane="best" departSpeed="desired" id="NT_139"
            route="NT"/>
   <vehicle depart="21632.8233" departLane="best" departSpeed="desired" id="NT_140"
            route="NT"/>
   <vehicle depart="21633.8233" departLane="best" departSpeed="desired" id="NT_141"
            route="NT"/>
   <vehicle depart="21635.8233" departLane="best" departSpeed="desired" id="NT_142"
            route="NT"/>
   <vehicle depart="21705.8233" departLane="best" departSpeed="desired" id="NT_143"
            route="NT"/>
   <vehicle depart="21792.8233" departLane="best" departSpeed="desired" id="NT_144"
            route="NT"/>
   <vehicle depart="21809.8233" departLane="best" departSpeed="desired" id="NT_145"
            route="NT"/>
   <vehicle depart="21810.8233" departLane="best" departSpeed="desired" id="NT_146"
            route="NT"/>
   <vehicle depart="21821.8233" departLane="best" departSpeed="desired" id="NT_147"
            route="NT"/>
   <vehicle depart="21969.8233" departLane="best" departSpeed="desired" id="NT_148"
            route="NT"/>
   <vehicle depart="21974.8233" departLane="best" departSpeed="desired" id="NT_149"
            route="NT"/>
   <vehicle depart="22015.8233" departLane="best" departSpeed="desired" id="NT_150"
            route="NT"/>
   <vehicle depart="22050.8233" departLane="best" departSpeed="desired" id="NT_151"
            route="NT"/>
   <vehicle depart="22075.8233" departLane="best" departSpeed="desired" id="NT_152"
            route="NT"/>
   <vehicle depart="22108.8233" departLane="best" departSpeed="desired" id="NT_153"
            route="NT"/>
   <vehicle depart="22121.8233" departLane="best" departSpeed="desired" id="NT_154"
            route="NT"/>
   <vehicle depart="22165.8233" departLane="best" departSpeed="desired" id="NT_155"
            route="NT"/>
   <vehicle depart="22255.8233" departLane="best" departSpeed="desired" id="NT_156"
            route="NT"/>
   <vehicle depart="22256.8233" departLane="best" departSpeed="desired" id="NT_157"
            route="NT"/>
   <vehicle depart="22257.8233" departLane="best" departSpeed="desired" id="NT_158"
            route="NT"/>
   <vehicle depart="22385.8233" departLane="best" departSpeed="desired" id="NT_159"
            route="NT"/>
   <vehicle depart="22445.8233" departLane="best" departSpeed="desired" id="NT_160"
            route="NT"/>
   <vehicle depart="22584.8233" departLane="best" departSpeed="desired" id="NT_161"
            route="NT"/>
   <vehicle depart="22604.8233" departLane="best" departSpeed="desired" id="NT_162"
            route="NT"/>
   <vehicle depart="22754.8233" departLane="best" departSpeed="desired" id="NT_163"
            route="NT"/>
   <vehicle depart="22784.8233" departLane="best" departSpeed="desired" id="NT_164"
            route="NT"/>
   <vehicle depart="22790.8233" departLane="best" departSpeed="desired" id="NT_165"
            route="NT"/>
   <vehicle depart="22922.8233" departLane="best" departSpeed="desired" id="NT_166"
            route="NT"/>
   <vehicle depart="22942.8233" departLane="best" departSpeed="desired" id="NT_167"
            route="NT"/>
   <vehicle depart="23056.8233" departLane="best" departSpeed="desired" id="NT_168"
            route="NT"/>
   <vehicle depart="23238.8233" departLane="best" departSpeed="desired" id="NT_169"
            route="NT"/>
   <vehicle depart="23252.8233" departLane="best" departSpeed="desired" id="NT_170"
            route="NT"/>
   <vehicle depart="23527.8233" departLane="best" departSpeed="desired" id="NT_171"
            route="NT"/>
   <vehicle depart="23539.8233" departLane="best" departSpeed="desired" id="NT_172"
            route="NT"/>
   <vehicle depart="23576.8233" departLane="best" departSpeed="desired" id="NT_173"
            route="NT"/>
   <vehicle depart="23843.8233" departLane="best" departSpeed="desired" id="NT_174"
            route="NT"/>
   <vehicle depart="23848.8233" departLane="best" departSpeed="desired" id="NT_175"
            route="NT"/>
   <vehicle depart="23961.8233" departLane="best" departSpeed="desired" id="NT_176"
            route="NT"/>
   <vehicle depart="24157.8233" departLane="best" departSpeed="desired" id="NT_177"
            route="NT"/>
   <vehicle depart="24354.8233" departLane="best" departSpeed="desired" id="NT_178"
            route="NT"/>
   <vehicle depart="24381.8233" departLane="best" departSpeed="desired" id="NT_179"
            route="NT"/>
   <vehicle depart="24451.8233" departLane="best" departSpeed="desired" id="NT_180"
            route="NT"/>
   <vehicle depart="24509.8233" departLane="best" departSpeed="desired" id="NT_181"
            route="NT"/>
   <vehicle depart="24513.8233" departLane="best" departSpeed="desired" id="NT_182"
            route="NT"/>
   <vehicle depart="24720.8233" departLane="best" departSpeed="desired" id="NT_183"
            route="NT"/>
   <vehicle depart="24775.8233" departLane="best" departSpeed="desired" id="NT_184"
            route="NT"/>
   <vehicle depart="24779.8233" departLane="best" departSpeed="desired" id="NT_185"
            route="NT"/>
   <vehicle depart="24851.8233" departLane="best" departSpeed="desired" id="NT_186"
            route="NT"/>
   <vehicle depart="24859.8233" departLane="best" departSpeed="desired" id="NT_187"
            route="NT"/>
   <vehicle depart="24860.8233" departLane="best" departSpeed="desired" id="NT_188"
            route="NT"/>
   <vehicle depart="24873.8233" departLane="best" departSpeed="desired" id="NT_189"
            route="NT"/>
   <vehicle depart="24879.8233" departLane="best" departSpeed="desired" id="NT_190"
            route="NT"/>
   <vehicle depart="24947.8233" departLane="best" departSpeed="desired" id="NT_191"
            route="NT"/>
   <vehicle depart="24981.8233" departLane="best" departSpeed="desired" id="NT_192"
            route="NT"/>
   <vehicle depart="25036.8233" departLane="best" departSpeed="desired" id="NT_193"
            route="NT"/>
   <vehicle depart="25063.8233" departLane="best" departSpeed="desired" id="NT_194"
            route="NT"/>
   <vehicle depart="25095.8233" departLane="best" departSpeed="desired" id="NT_195"
            route="NT"/>
   <vehicle depart="25167.8233" departLane="best" departSpeed="desired" id="NT_196"
            route="NT"/>
   <vehicle depart="25209.8233" departLane="best" departSpeed="desired" id="NT_197"
            route="NT"/>
   <vehicle depart="25218.8233" departLane="best" departSpeed="desired" id="NT_198"
            route="NT"/>
   <vehicle depart="25236.8233" departLane="best" departSpeed="desired" id="NT_199"
            route="NT"/>
   <vehicle depart="25270.8233" departLane="best" departSpeed="desired" id="NT_200"
            route="NT"/>
   <vehicle depart="25434.8233" departLane="best" departSpeed="desired" id="NT_201"
            route="NT"/>
   <vehicle depart="25555.8233" departLane="best" departSpeed="desired" id="NT_202"
            route="NT"/>
   <vehicle depart="25630.8233" departLane="best" departSpeed="desired" id="NT_203"
            route="NT"/>
   <vehicle depart="25724.8233" departLane="best" departSpeed="desired" id="NT_204"
            route="NT"/>
   <vehicle depart="25732.8233" departLane="best" departSpeed="desired" id="NT_205"
            route="NT"/>
   <vehicle depart="25741.8233" departLane="best" departSpeed="desired" id="NT_206"
            route="NT"/>
   <vehicle depart="25759.8233" departLane="best" departSpeed="desired" id="NT_207"
            route="NT"/>
   <vehicle depart="25767.8233" departLane="best" departSpeed="desired" id="NT_208"
            route="NT"/>
   <vehicle depart="26015.8233" departLane="best" departSpeed="desired" id="NT_209"
            route="NT"/>
   <vehicle depart="26047.8233" departLane="best" departSpeed="desired" id="NT_210"
            route="NT"/>
   <vehicle depart="26317.8233" departLane="best" departSpeed="desired" id="NT_211"
            route="NT"/>
   <vehicle depart="26336.8233" departLane="best" departSpeed="desired" id="NT_212"
            route="NT"/>
   <vehicle depart="26556.8233" departLane="best" departSpeed="desired" id="NT_213"
            route="NT"/>
   <vehicle depart="26623.8233" departLane="best" departSpeed="desired" id="NT_214"
            route="NT"/>
   <vehicle depart="26627.8233" departLane="best" departSpeed="desired" id="NT_215"
            route="NT"/>
   <vehicle depart="26732.8233" departLane="best" departSpeed="desired" id="NT_216"
            route="NT"/>
   <vehicle depart="26740.8233" departLane="best" departSpeed="desired" id="NT_217"
            route="NT"/>
   <vehicle depart="26754.8233" departLane="best" departSpeed="desired" id="NT_218"
            route="NT"/>
   <vehicle depart="26832.8233" departLane="best" departSpeed="desired" id="NT_219"
            route="NT"/>
   <vehicle depart="26857.8233" departLane="best" departSpeed="desired" id="NT_220"
            route="NT"/>
   <vehicle depart="26890.8233" departLane="best" departSpeed="desired" id="NT_221"
            route="NT"/>
   <vehicle depart="26920.8233" departLane="best" departSpeed="desired" id="NT_222"
            route="NT"/>
   <vehicle depart="26923.8233" departLane="best" departSpeed="desired" id="NT_223"
            route="NT"/>
   <vehicle depart="27111.8233" departLane="best" departSpeed="desired" id="NT_224"
            route="NT"/>
   <vehicle depart="27158.8233" departLane="best" departSpeed="desired" id="NT_225"
            route="NT"/>
   <vehicle depart="27181.8233" departLane="best" departSpeed="desired" id="NT_226"
            route="NT"/>
   <vehicle depart="27202.8233" departLane="best" departSpeed="desired" id="NT_227"
            route="NT"/>
   <vehicle depart="27340.8233" departLane="best" departSpeed="desired" id="NT_228"
            route="NT"/>
   <vehicle depart="27374.8233" departLane="best" departSpeed="desired" id="NT_229"
            route="NT"/>
   <vehicle depart="27414.8233" departLane="best" departSpeed="desired" id="NT_230"
            route="NT"/>
   <vehicle depart="27459.8233" departLane="best" departSpeed="desired" id="NT_231"
            route="NT"/>
   <vehicle depart="27460.8233" departLane="best" departSpeed="desired" id="NT_232"
            route="NT"/>
   <vehicle depart="27534.8233" departLane="best" departSpeed="desired" id="NT_233"
            route="NT"/>
   <vehicle depart="27536.8233" departLane="best" departSpeed="desired" id="NT_234"
            route="NT"/>
   <vehicle depart="27608.8233" departLane="best" departSpeed="desired" id="NT_235"
            route="NT"/>
   <vehicle depart="27803.8233" departLane="best" departSpeed="desired" id="NT_236"
            route="NT"/>
   <vehicle depart="27810.8233" departLane="best" departSpeed="desired" id="NT_237"
            route="NT"/>
   <vehicle depart="27847.8233" departLane="best" departSpeed="desired" id="NT_238"
            route="NT"/>
   <vehicle depart="27858.8233" departLane="best" departSpeed="desired" id="NT_239"
            route="NT"/>
   <vehicle depart="27925.8233" departLane="best" departSpeed="desired" id="NT_240"
            route="NT"/>
   <vehicle depart="27971.8233" departLane="best" departSpeed="desired" id="NT_241"
            route="NT"/>
   <vehicle depart="28000.8233" departLane="best" departSpeed="desired" id="NT_242"
            route="NT"/>
   <vehicle depart="28048.8233" departLane="best" departSpeed="desired" id="NT_243"
            route="NT"/>
   <vehicle depart="28113.8233" departLane="best" departSpeed="desired" id="NT_244"
            route="NT"/>
   <vehicle depart="28138.8233" departLane="best" departSpeed="desired" id="NT_245"
            route="NT"/>
   <vehicle depart="28143.8233" departLane="best" departSpeed="desired" id="NT_246"
            route="NT"/>
   <vehicle depart="28144.8233" departLane="best" departSpeed="desired" id="NT_247"
            route="NT"/>
   <vehicle depart="28165.8233" departLane="best" departSpeed="desired" id="NT_248"
            route="NT"/>
   <vehicle depart="28288.8233" departLane="best" departSpeed="desired" id="NT_249"
            route="NT"/>
   <vehicle depart="28292.8233" departLane="best" departSpeed="desired" id="NT_250"
            route="NT"/>
   <vehicle depart="28301.8233" departLane="best" departSpeed="desired" id="NT_251"
            route="NT"/>
   <vehicle depart="28344.8233" departLane="best" departSpeed="desired" id="NT_252"
            route="NT"/>
   <vehicle depart="28423.8233" departLane="best" departSpeed="desired" id="NT_253"
            route="NT"/>
   <vehicle depart="28430.8233" departLane="best" departSpeed="desired" id="NT_254"
            route="NT"/>
   <vehicle depart="28539.8233" departLane="best" departSpeed="desired" id="NT_255"
            route="NT"/>
   <vehicle depart="28558.8233" departLane="best" departSpeed="desired" id="NT_256"
            route="NT"/>
   <vehicle depart="28573.8233" departLane="best" departSpeed="desired" id="NT_257"
            route="NT"/>
   <vehicle depart="28574.8233" departLane="best" departSpeed="desired" id="NT_258"
            route="NT"/>
   <vehicle depart="28666.8233" departLane="best" departSpeed="desired" id="NT_259"
            route="NT"/>
   <vehicle depart="28736.8233" departLane="best" departSpeed="desired" id="NT_260"
            route="NT"/>
   <vehicle depart="28738.8233" departLane="best" departSpeed="desired" id="NT_261"
            route="NT"/>
   <vehicle depart="28773.8233" departLane="best" departSpeed="desired" id="NT_262"
            route="NT"/>
   <vehicle depart="28827.8233" departLane="best" departSpeed="desired" id="NT_263"
            route="NT"/>
   <vehicle depart="28935.8233" departLane="best" departSpeed="desired" id="NT_264"
            route="NT"/>
   <vehicle depart="28940.8233" departLane="best" departSpeed="desired" id="NT_265"
            route="NT"/>
   <vehicle depart="29012.8233" departLane="best" departSpeed="desired" id="NT_266"
            route="NT"/>
   <vehicle depart="29064.8233" departLane="best" departSpeed="desired" id="NT_267"
            route="NT"/>
   <vehicle depart="29209.8233" departLane="best" departSpeed="desired" id="NT_268"
            route="NT"/>
   <vehicle depart="29216.8233" departLane="best" departSpeed="desired" id="NT_269"
            route="NT"/>
   <vehicle depart="29224.8233" departLane="best" departSpeed="desired" id="NT_270"
            route="NT"/>
   <vehicle depart="29447.8233" departLane="best" departSpeed="desired" id="NT_271"
            route="NT"/>
   <vehicle depart="29504.8233" departLane="best" departSpeed="desired" id="NT_272"
            route="NT"/>
   <vehicle depart="29548.8233" departLane="best" departSpeed="desired" id="NT_273"
            route="NT"/>
   <vehicle depart="29607.8233" departLane="best" departSpeed="desired" id="NT_274"
            route="NT"/>
   <vehicle depart="29629.8233" departLane="best" departSpeed="desired" id="NT_275"
            route="NT"/>
   <vehicle depart="29717.8233" departLane="best" departSpeed="desired" id="NT_276"
            route="NT"/>
   <vehicle depart="29830.8233" departLane="best" departSpeed="desired" id="NT_277"
            route="NT"/>
   <vehicle depart="29844.8233" departLane="best" departSpeed="desired" id="NT_278"