<additional>
	<e2Detector file="e2Output.xml" freq="900" id="ValidSensor8_1_0" lane="South8_2" length="180" pos="795.00" />
	<e2Detector file="e2Output.xml" freq="900" id="ValidSensor8_1_1" lane="South8_3" length="180" pos="795.00" />
	<e2Detector file="e2Output.xml" freq="900" id="ValidSensor8_2" lane="South8_4" length="180" pos="795.00" />
	<e2Detector file="e2Output.xml" freq="900" id="ValidSensor8_3_0" lane="West2_1" length="180" pos="917.00" />
	<e2Detector file="e2Output.xml" freq="900" id="ValidSensor8_3_1" lane="West2_2" length="180" pos="917.00" />
	<e2Detector file="e2Output.xml" freq="900" id="ValidSensor8_4" lane="West2_3" length="180" pos="917.00" />
	<e2Detector file="e2Output.xml" freq="900" id="ValidSensor8_5" lane="North8_1" length="180" pos="1039.00" />
	<e2Detector file="e2Output.xml" freq="900" id="ValidSensor8_6_0" lane="North8_2" length="180" pos="1039.00" />
	<e2Detector file="e2Output.xml" freq="900" id="ValidSensor8_6_1" lane="North8_3" length="180" pos="1039.00" />
	<e2Detector file="e2Output.xml" freq="900" id="ValidSensor8_7_0" lane="East19_2" length="180" pos="1039.00" />
	<e2Detector file="e2Output.xml" freq="900" id="ValidSensor8_7_1" lane="East19_3" length="180" pos="1039.00" />
	<e2Detector file="e2Output.xml" freq="900" id="ValidSensor8_8" lane="East19_4" length="180" pos="1039.00" />
</additional>