<?xml version="1.0" encoding="UTF-8"?>

<!-- generated on 2024-10-18 09:39:09 by Eclipse SUMO netedit Version 1.12.0
<configuration xmlns:xsi="http://www.w3.org/2001/XMLSchema-instance" xsi:noNamespaceSchemaLocation="http://sumo.dlr.de/xsd/netconvertConfiguration.xsd">

    <input>
        <sumo-net-file value="C:\Users\Zachariah\Documents\GitHub\BashR\Shallowford\Junction8Pedestrian.net.xml"/>
    </input>

    <output>
        <output-file value="C:\Users\Zachariah\Documents\GitHub\BashR\Shallowford\Junction8Pedestrian.net.xml"/>
        <output.street-names value="true"/>
    </output>

    <processing>
        <geometry.min-radius.fix.railways value="false"/>
        <geometry.max-grade.fix value="false"/>
        <offset.disable-normalization value="true"/>
        <lefthand value="false"/>
    </processing>

    <junctions>
        <no-internal-links value="false"/>
        <no-turnarounds value="true"/>
        <junctions.corner-detail value="5"/>
        <junctions.limit-turn-speed value="5.5"/>
        <rectangular-lane-cut value="false"/>
    </junctions>

    <pedestrian>
        <walkingareas value="false"/>
    </pedestrian>

    <report>
        <aggregate-warnings value="5"/>
    </report>

</configuration>
-->

<net version="1.9" junctionCornerDetail="5" limitTurnSpeed="5.50" xmlns:xsi="http://www.w3.org/2001/XMLSchema-instance" xsi:noNamespaceSchemaLocation="http://sumo.dlr.de/xsd/net_file.xsd">

    <location netOffset="-665631.82,-3876271.20" convBoundary="0.00,1163.58,4587.33,4200.76" origBoundary="-85.183813,35.015215,-85.133950,35.053391" projParameter="+proj=utm +zone=16 +ellps=WGS84 +datum=WGS84 +units=m +no_defs"/>

    <type id="highway.bridleway" priority="1" numLanes="1" speed="2.78" allow="pedestrian" oneway="1" width="2.00"/>
    <type id="highway.bus_guideway" priority="1" numLanes="1" speed="27.78" allow="bus" oneway="1"/>
    <type id="highway.cycleway" priority="1" numLanes="1" speed="8.33" allow="bicycle" oneway="0" width="1.00"/>
    <type id="highway.footway" priority="1" numLanes="1" speed="2.78" allow="pedestrian" oneway="1" width="2.00"/>
    <type id="highway.ford" priority="1" numLanes="1" speed="2.78" allow="army" oneway="0"/>
    <type id="highway.living_street" priority="2" numLanes="1" speed="2.78" disallow="tram rail_urban rail rail_electric rail_fast ship" oneway="0"/>
    <type id="highway.motorway" priority="14" numLanes="2" speed="39.44" allow="private emergency authority army vip passenger hov taxi bus coach delivery truck trailer motorcycle evehicle custom1 custom2" oneway="1"/>
    <type id="highway.motorway_link" priority="9" numLanes="1" speed="22.22" allow="private emergency authority army vip passenger hov taxi bus coach delivery truck trailer motorcycle evehicle custom1 custom2" oneway="1"/>
    <type id="highway.path" priority="1" numLanes="1" speed="2.78" allow="pedestrian bicycle" oneway="1" width="2.00"/>
    <type id="highway.pedestrian" priority="1" numLanes="1" speed="2.78" allow="pedestrian" oneway="1" width="2.00"/>
    <type id="highway.primary" priority="12" numLanes="2" speed="27.78" disallow="tram rail_urban rail rail_electric rail_fast ship" oneway="0"/>
    <type id="highway.primary_link" priority="7" numLanes="1" speed="22.22" disallow="tram rail_urban rail rail_electric rail_fast ship" oneway="0"/>
    <type id="highway.raceway" priority="15" numLanes="2" speed="83.33" allow="vip" oneway="0"/>
    <type id="highway.residential" priority="3" numLanes="1" speed="13.89" disallow="tram rail_urban rail rail_electric rail_fast ship" oneway="0"/>
    <type id="highway.secondary" priority="11" numLanes="1" speed="27.78" disallow="tram rail_urban rail rail_electric rail_fast ship" oneway="0"/>
    <type id="highway.secondary_link" priority="6" numLanes="1" speed="22.22" disallow="tram rail_urban rail rail_electric rail_fast ship" oneway="0"/>
    <type id="highway.service" priority="1" numLanes="1" speed="5.56" allow="pedestrian delivery bicycle" oneway="0"/>
    <type id="highway.stairs" priority="1" numLanes="1" speed="1.39" allow="pedestrian" oneway="1" width="2.00"/>
    <type id="highway.step" priority="1" numLanes="1" speed="1.39" allow="pedestrian" oneway="1" width="2.00"/>
    <type id="highway.steps" priority="1" numLanes="1" speed="1.39" allow="pedestrian" oneway="1" width="2.00"/>
    <type id="highway.tertiary" priority="10" numLanes="1" speed="22.22" disallow="tram rail_urban rail rail_electric rail_fast ship" oneway="0"/>
    <type id="highway.tertiary_link" priority="5" numLanes="1" speed="22.22" disallow="tram rail_urban rail rail_electric rail_fast ship" oneway="0"/>
    <type id="highway.track" priority="1" numLanes="1" speed="5.56" disallow="tram rail_urban rail rail_electric rail_fast ship" oneway="0"/>
    <type id="highway.trunk" priority="13" numLanes="2" speed="27.78" disallow="pedestrian bicycle tram rail_urban rail rail_electric rail_fast ship" oneway="0"/>
    <type id="highway.trunk_link" priority="8" numLanes="1" speed="22.22" disallow="pedestrian bicycle tram rail_urban rail rail_electric rail_fast ship" oneway="0"/>
    <type id="highway.unclassified" priority="4" numLanes="1" speed="13.89" disallow="tram rail_urban rail rail_electric rail_fast ship" oneway="0"/>
    <type id="highway.unsurfaced" priority="1" numLanes="1" speed="8.33" disallow="tram rail_urban rail rail_electric rail_fast ship" oneway="0"/>
    <type id="railway.highspeed" priority="21" numLanes="1" speed="69.44" allow="rail_fast" oneway="1"/>
    <type id="railway.light_rail" priority="19" numLanes="1" speed="27.78" allow="rail_urban" oneway="1"/>
    <type id="railway.preserved" priority="16" numLanes="1" speed="27.78" allow="rail" oneway="1"/>
    <type id="railway.rail" priority="20" numLanes="1" speed="44.44" allow="rail" oneway="1"/>
    <type id="railway.subway" priority="18" numLanes="1" speed="27.78" allow="rail_urban" oneway="1"/>
    <type id="railway.tram" priority="17" numLanes="1" speed="13.89" allow="tram" oneway="1"/>

    <edge id=":122082520#2-AddedOnRampNode_0" function="internal">
        <lane id=":122082520#2-AddedOnRampNode_0_0" index="0" allow="private emergency authority army vip passenger hov taxi bus coach delivery truck trailer motorcycle evehicle custom1 custom2" speed="29.06" length="8.00" shape="2908.27,3411.18 2913.71,3417.06"/>
        <lane id=":122082520#2-AddedOnRampNode_0_1" index="1" allow="private emergency authority army vip passenger hov taxi bus coach delivery truck trailer motorcycle evehicle custom1 custom2" speed="29.06" length="8.00" shape="2905.92,3413.35 2911.36,3419.23"/>
        <lane id=":122082520#2-AddedOnRampNode_0_2" index="2" allow="private emergency authority army vip passenger hov taxi bus coach delivery truck trailer motorcycle evehicle custom1 custom2" speed="29.06" length="8.00" shape="2903.57,3415.53 2909.01,3421.40"/>
    </edge>
    <edge id=":1447125060_0" function="internal">
        <lane id=":1447125060_0_0" index="0" disallow="tram rail_urban rail rail_electric rail_fast ship" speed="17.88" length="0.15" shape="3654.26,2583.11 3654.12,2583.17"/>
    </edge>
    <edge id=":1447125060_1" function="internal">
        <lane id=":1447125060_1_0" index="0" disallow="tram rail_urban rail rail_electric rail_fast ship" speed="3.65" length="2.34" shape="3654.26,2583.11 3652.85,2582.83 3652.17,2582.24"/>
    </edge>
    <edge id=":1447125060_4" function="internal">
        <lane id=":1447125060_4_0" index="0" disallow="tram rail_urban rail rail_electric rail_fast ship" speed="3.65" length="2.34" shape="3652.17,2582.24 3652.24,2581.35 3653.04,2580.15"/>
    </edge>
    <edge id=":1447125060_2" function="internal">
        <lane id=":1447125060_2_0" index="0" disallow="tram rail_urban rail rail_electric rail_fast ship" speed="17.88" length="0.28" shape="3652.78,2580.26 3653.04,2580.15"/>
    </edge>
    <edge id=":1447125060_3" function="internal">
        <lane id=":1447125060_3_0" index="0" disallow="tram rail_urban rail rail_electric rail_fast ship" speed="3.65" length="2.34" shape="3652.78,2580.26 3654.21,2580.49 3654.90,2581.05"/>
    </edge>
    <edge id=":1447125060_5" function="internal">
        <lane id=":1447125060_5_0" index="0" disallow="tram rail_urban rail rail_electric rail_fast ship" speed="3.65" length="2.34" shape="3654.90,2581.05 3654.88,2581.94 3654.12,2583.17"/>
    </edge>
    <edge id=":1447125060_w0" function="walkingarea">
        <lane id=":1447125060_w0_0" index="0" allow="pedestrian" speed="1.00" length="2.21" width="3.20" shape="3654.87,2584.59 3653.65,2581.63 3653.65,2581.63 3652.43,2578.67 3652.11,2578.81 3653.45,2581.72 3653.45,2581.72 3654.79,2584.62"/>
    </edge>
    <edge id=":1717049910_0" function="internal">
        <lane id=":1717049910_0_0" index="0" disallow="tram rail_urban rail rail_electric rail_fast ship" speed="17.88" length="16.08" shape="3486.44,2654.23 3483.80,2656.39 3481.98,2659.52 3479.65,2662.86 3475.51,2665.63"/>
    </edge>
    <edge id=":1717049910_1" function="internal">
        <lane id=":1717049910_1_0" index="0" disallow="tram rail_urban rail rail_electric rail_fast ship" speed="8.70" length="4.98" shape="3486.44,2654.23 3482.60,2655.00 3481.58,2654.69"/>
    </edge>
    <edge id=":1717049910_2" function="internal">
        <lane id=":1717049910_2_0" index="0" disallow="tram rail_urban rail rail_electric rail_fast ship" speed="3.65" length="1.44" shape="3486.44,2654.23 3485.02,2653.95"/>
    </edge>
    <edge id=":1717049910_10" function="internal">
        <lane id=":1717049910_10_0" index="0" disallow="tram rail_urban rail rail_electric rail_fast ship" speed="8.70" length="11.89" shape="3481.58,2654.69 3479.19,2653.96 3476.22,2651.12 3473.68,2646.49"/>
    </edge>
    <edge id=":1717049910_11" function="internal">
        <lane id=":1717049910_11_0" index="0" disallow="tram rail_urban rail rail_electric rail_fast ship" speed="3.65" length="3.23" shape="3485.02,2653.95 3484.35,2653.36 3484.41,2652.47 3485.22,2651.27"/>
    </edge>
    <edge id=":1717049910_3" function="internal">
        <lane id=":1717049910_3_0" index="0" disallow="tram rail_urban rail rail_electric rail_fast ship" speed="7.36" length="11.77" shape="3476.63,2645.25 3478.45,2648.68 3480.49,2650.83 3482.74,2651.69 3485.22,2651.27"/>
    </edge>
    <edge id=":1717049910_4" function="internal">
        <lane id=":1717049910_4_0" index="0" disallow="tram rail_urban rail rail_electric rail_fast ship" speed="9.31" length="19.69" shape="3476.63,2645.25 3478.70,2651.61 3479.00,2656.63 3477.53,2660.32 3474.30,2662.67"/>
        <lane id=":1717049910_4_1" index="1" disallow="tram rail_urban rail rail_electric rail_fast ship" speed="8.66" length="16.90" shape="3476.63,2645.25 3478.16,2650.31 3478.07,2654.41 3476.38,2657.55 3473.09,2659.71"/>
    </edge>
    <edge id=":1717049910_6" function="internal">
        <lane id=":1717049910_6_0" index="0" disallow="tram rail_urban rail rail_electric rail_fast ship" speed="3.65" length="4.67" shape="3476.63,2645.25 3476.36,2646.66 3475.77,2647.34 3474.88,2647.28 3473.68,2646.49"/>
    </edge>
    <edge id=":1717049910_7" function="internal">
        <lane id=":1717049910_7_0" index="0" disallow="tram rail_urban rail rail_electric rail_fast ship" speed="6.49" length="9.03" shape="3470.66,2653.79 3472.79,2652.54 3474.01,2650.90 3474.30,2648.88 3473.68,2646.49"/>
    </edge>
    <edge id=":1717049910_8" function="internal">
        <lane id=":1717049910_8_0" index="0" disallow="tram rail_urban rail rail_electric rail_fast ship" speed="17.88" length="14.86" shape="3470.66,2653.79 3475.17,2652.48 3478.77,2652.19 3481.95,2652.07 3485.22,2651.27"/>
    </edge>
    <edge id=":1717049910_9" function="internal">
        <lane id=":1717049910_9_0" index="0" disallow="tram rail_urban rail rail_electric rail_fast ship" speed="3.65" length="2.34" shape="3471.87,2656.75 3473.29,2657.04 3473.96,2657.62"/>
    </edge>
    <edge id=":1717049910_12" function="internal">
        <lane id=":1717049910_12_0" index="0" disallow="tram rail_urban rail rail_electric rail_fast ship" speed="3.65" length="2.34" shape="3473.96,2657.62 3473.89,2658.52 3473.09,2659.71"/>
    </edge>
    <edge id=":1717049910_w0" function="walkingarea">
        <lane id=":1717049910_w0_0" index="0" allow="pedestrian" speed="1.00" length="12.81" width="3.20" shape="3487.04,2655.71 3485.83,2652.75 3485.83,2652.75 3484.61,2649.79 3478.10,2644.63 3475.15,2645.87 3475.15,2645.87 3472.20,2647.10 3470.05,2652.31 3471.26,2655.27 3471.26,2655.27 3472.48,2658.23 3472.48,2658.23 3473.69,2661.19 3473.69,2661.19 3474.91,2664.15 3474.91,2664.15 3476.12,2667.11 3484.21,2657.39 3482.59,2659.34 3481.58,2661.42 3480.58,2663.49 3478.96,2665.44"/>
    </edge>
    <edge id=":202568603_0" function="internal">
        <lane id=":202568603_0_0" index="0" allow="private emergency authority army vip passenger hov taxi bus coach delivery truck trailer motorcycle evehicle custom1 custom2" speed="25.64" length="3.13" shape="2318.66,2780.34 2316.72,2777.84"/>
        <lane id=":202568603_0_1" index="1" allow="private emergency authority army vip passenger hov taxi bus coach delivery truck trailer motorcycle evehicle custom1 custom2" speed="25.64" length="3.13" shape="2321.09,2778.25 2319.19,2775.81"/>
    </edge>
    <edge id=":202568603_2" function="internal">
        <lane id=":202568603_2_0" index="0" allow="private emergency authority army vip passenger hov taxi bus coach delivery truck trailer motorcycle evehicle custom1 custom2" speed="29.06" length="2.94" shape="2323.60,2776.09 2321.67,2773.78"/>
        <lane id=":202568603_2_1" index="1" allow="private emergency authority army vip passenger hov taxi bus coach delivery truck trailer motorcycle evehicle custom1 custom2" speed="29.06" length="2.94" shape="2326.03,2774.00 2324.14,2771.75"/>
        <lane id=":202568603_2_2" index="2" allow="private emergency authority army vip passenger hov taxi bus coach delivery truck trailer motorcycle evehicle custom1 custom2" speed="29.06" length="2.94" shape="2328.46,2771.92 2326.61,2769.72"/>
    </edge>
    <edge id=":202568603_w0" function="walkingarea">
        <lane id=":202568603_w0_0" index="0" allow="pedestrian" speed="1.00" length="0.10" width="3.20" shape="2317.37,2781.29 2319.94,2779.39 2319.80,2779.20 2322.38,2777.30"/>
    </edge>
    <edge id=":202568614_0" function="internal">
        <lane id=":202568614_0_0" index="0" allow="private emergency authority army vip passenger hov taxi bus coach delivery truck trailer motorcycle evehicle custom1 custom2" speed="25.64" length="70.84" shape="2815.89,3355.98 2763.76,3308.24"/>
        <lane id=":202568614_0_1" index="1" allow="private emergency authority army vip passenger hov taxi bus coach delivery truck trailer motorcycle evehicle custom1 custom2" speed="25.64" length="70.84" shape="2815.89,3355.98 2768.07,3303.51"/>
    </edge>
    <edge id=":202568614_2" function="internal">
        <lane id=":202568614_2_0" index="0" allow="private emergency authority army vip passenger hov taxi bus coach delivery truck trailer motorcycle evehicle custom1 custom2" speed="29.06" length="70.93" shape="2815.89,3355.98 2770.54,3301.16"/>
        <lane id=":202568614_2_1" index="1" allow="private emergency authority army vip passenger hov taxi bus coach delivery truck trailer motorcycle evehicle custom1 custom2" speed="29.06" length="70.93" shape="2818.22,3353.78 2773.01,3299.13"/>
        <lane id=":202568614_2_2" index="2" allow="private emergency authority army vip passenger hov taxi bus coach delivery truck trailer motorcycle evehicle custom1 custom2" speed="29.06" length="70.93" shape="2820.55,3351.59 2775.48,3297.09"/>
    </edge>
    <edge id=":202568614_w0" function="walkingarea">
        <lane id=":202568614_w0_0" index="0" allow="pedestrian" speed="1.00" length="0.10" width="3.20" shape="2769.15,3302.33 2767.00,3304.69 2767.00,3304.69 2764.84,3307.06 2764.84,3307.06 2762.68,3309.42"/>
    </edge>
    <edge id=":202634714_0" function="internal">
        <lane id=":202634714_0_0" index="0" disallow="tram rail_urban rail rail_electric rail_fast ship" speed="3.65" length="4.67" shape="3260.55,3148.13 3260.33,3149.55 3259.77,3150.25 3258.88,3150.23 3257.65,3149.47"/>
    </edge>
    <edge id=":202665924_0" function="internal">
        <lane id=":202665924_0_0" index="0" disallow="pedestrian tram rail_urban rail rail_electric rail_fast ship" speed="17.84" length="10.26" shape="3167.61,2945.69 3165.25,2944.01 3161.81,2944.38 3158.27,2944.53 3155.62,2942.22"/>
        <lane id=":202665924_0_1" index="1" disallow="pedestrian tram rail_urban rail rail_electric rail_fast ship" speed="17.84" length="10.26" shape="3167.61,2945.69 3165.64,2943.67 3163.11,2943.35 3160.55,2943.01 3158.55,2940.93"/>
        <lane id=":202665924_0_2" index="2" disallow="pedestrian tram rail_urban rail rail_electric rail_fast ship" speed="17.84" length="10.26" shape="3167.61,2945.69 3166.17,2943.63 3164.55,2942.66 3162.92,2941.70 3161.48,2939.64"/>
        <lane id=":202665924_0_3" index="3" disallow="pedestrian tram rail_urban rail rail_electric rail_fast ship" speed="17.84" length="10.26" shape="3167.61,2945.69 3164.40,2938.35"/>
    </edge>
    <edge id=":202665924_4" function="internal">
        <lane id=":202665924_4_0" index="0" disallow="tram rail_urban rail rail_electric rail_fast ship" speed="3.65" length="1.44" shape="3167.61,2945.69 3167.87,2944.27"/>
    </edge>
    <edge id=":202665924_7" function="internal">
        <lane id=":202665924_7_0" index="0" disallow="tram rail_urban rail rail_electric rail_fast ship" speed="3.65" length="3.23" shape="3167.87,2944.27 3168.44,2943.58 3169.33,2943.63 3170.55,2944.41"/>
    </edge>
    <edge id=":202665924_5" function="internal">
        <lane id=":202665924_5_0" index="0" disallow="pedestrian tram rail_urban rail rail_electric rail_fast ship" speed="22.22" length="8.02" shape="3167.33,2937.06 3170.55,2944.41"/>
    </edge>
    <edge id=":202665924_6" function="internal">
        <lane id=":202665924_6_0" index="0" disallow="pedestrian" speed="3.65" length="1.44" shape="3167.33,2937.06 3167.08,2938.49"/>
    </edge>
    <edge id=":202665924_8" function="internal">
        <lane id=":202665924_8_0" index="0" disallow="pedestrian" speed="3.65" length="3.23" shape="3167.08,2938.49 3166.51,2939.17 3165.62,2939.13 3164.40,2938.35"/>
    </edge>
    <edge id=":202665924_w0" function="walkingarea">
        <lane id=":202665924_w0_0" index="0" allow="pedestrian" speed="1.00" length="11.91" width="3.20" shape="3154.15,2942.87 3152.32,2943.68 3166.14,2946.32 3169.08,2945.05 3169.08,2945.05 3172.01,2943.77 3170.63,2935.61 3168.80,2936.42"/>
    </edge>
    <edge id=":202678702_0" function="internal">
        <lane id=":202678702_0_0" index="0" disallow="tram rail_urban rail rail_electric rail_fast ship" speed="3.65" length="4.67" shape="2641.91,2828.77 2641.97,2827.33 2642.45,2826.57 2643.34,2826.50 2644.65,2827.11"/>
    </edge>
    <edge id=":2190362763_0" function="internal">
        <lane id=":2190362763_0_0" index="0" disallow="tram rail_urban rail rail_electric rail_fast ship" speed="3.65" length="4.67" shape="3240.01,2303.40 3240.29,2301.99 3240.88,2301.31 3241.77,2301.37 3242.97,2302.18"/>
    </edge>
    <edge id=":3583810133_0" function="internal">
        <lane id=":3583810133_0_0" index="0" speed="3.65" length="4.67" shape="2335.52,3064.02 2335.81,3062.60 2336.40,3061.94 2337.30,3062.01 2338.48,3062.82"/>
    </edge>
    <edge id=":3583810133_w0" function="walkingarea">
        <lane id=":3583810133_w0_0" index="0" allow="pedestrian" speed="1.00" length="6.40" width="3.20" shape="2337.00,3063.42 2339.97,3062.23 2339.97,3062.23 2342.94,3061.04 2334.03,3064.61 2337.00,3063.42"/>
    </edge>
    <edge id=":37738453#2-AddedOnRampNode_0" function="internal">
        <lane id=":37738453#2-AddedOnRampNode_0_0" index="0" allow="private emergency authority army vip passenger hov taxi bus coach delivery truck trailer motorcycle evehicle custom1 custom2" speed="29.06" length="8.00" shape="2261.66,2700.67 2256.59,2694.49"/>
        <lane id=":37738453#2-AddedOnRampNode_0_1" index="1" allow="private emergency authority army vip passenger hov taxi bus coach delivery truck trailer motorcycle evehicle custom1 custom2" speed="29.06" length="8.00" shape="2264.13,2698.64 2259.06,2692.46"/>
        <lane id=":37738453#2-AddedOnRampNode_0_2" index="2" allow="private emergency authority army vip passenger hov taxi bus coach delivery truck trailer motorcycle evehicle custom1 custom2" speed="29.06" length="8.00" shape="2266.61,2696.61 2261.53,2690.43"/>
    </edge>
    <edge id=":3789441648_0" function="internal">
        <lane id=":3789441648_0_0" index="0" disallow="tram rail_urban rail rail_electric rail_fast ship" speed="3.65" length="4.67" shape="4586.84,2177.31 4588.22,2177.70 4588.85,2178.34 4588.72,2179.22 4587.82,2180.35"/>
    </edge>
    <edge id=":3944662753_0" function="internal">
        <lane id=":3944662753_0_0" index="0" disallow="tram rail_urban rail rail_electric rail_fast ship" speed="17.88" length="0.30" shape="3706.72,2561.18 3706.45,2561.30"/>
    </edge>
    <edge id=":3944662753_1" function="internal">
        <lane id=":3944662753_1_0" index="0" disallow="tram rail_urban rail rail_electric rail_fast ship" speed="3.65" length="2.34" shape="3706.72,2561.18 3705.30,2560.94 3704.61,2560.36"/>
    </edge>
    <edge id=":3944662753_4" function="internal">
        <lane id=":3944662753_4_0" index="0" disallow="tram rail_urban rail rail_electric rail_fast ship" speed="3.65" length="2.34" shape="3704.61,2560.36 3704.66,2559.47 3705.43,2558.26"/>
    </edge>
    <edge id=":3944662753_2" function="internal">
        <lane id=":3944662753_2_0" index="0" disallow="tram rail_urban rail rail_electric rail_fast ship" speed="17.88" length="0.30" shape="3705.16,2558.38 3705.43,2558.26"/>
    </edge>
    <edge id=":3944662753_3" function="internal">
        <lane id=":3944662753_3_0" index="0" disallow="tram rail_urban rail rail_electric rail_fast ship" speed="3.65" length="2.34" shape="3705.16,2558.38 3706.58,2558.62 3707.27,2559.20"/>
    </edge>
    <edge id=":3944662753_5" function="internal">
        <lane id=":3944662753_5_0" index="0" disallow="tram rail_urban rail rail_electric rail_fast ship" speed="3.65" length="2.34" shape="3707.27,2559.20 3707.22,2560.09 3706.45,2561.30"/>
    </edge>
    <edge id=":3944662753_w0" function="walkingarea">
        <lane id=":3944662753_w0_0" index="0" allow="pedestrian" speed="1.00" length="2.24" width="3.20" shape="3707.37,2562.65 3706.08,2559.72 3706.08,2559.72 3704.79,2556.79 3704.51,2556.91 3705.80,2559.84 3705.80,2559.84 3707.09,2562.77"/>
    </edge>
    <edge id=":3944662860_0" function="internal">
        <lane id=":3944662860_0_0" index="0" allow="pedestrian delivery bicycle" speed="3.65" length="4.67" shape="3214.09,2730.44 3214.33,2729.02 3214.90,2728.33 3215.79,2728.37 3217.01,2729.14"/>
    </edge>
    <edge id=":3944662862_0" function="internal">
        <lane id=":3944662862_0_0" index="0" disallow="pedestrian" speed="3.65" length="4.67" shape="3074.28,2730.68 3074.55,2729.27 3075.13,2728.59 3076.02,2728.64 3077.22,2729.44"/>
    </edge>
    <edge id=":3944662862_w0" function="walkingarea">
        <lane id=":3944662862_w0_0" index="0" allow="pedestrian" speed="1.00" length="18.00" width="2.00" shape="3084.59,2726.32 3086.43,2725.54 3068.02,2733.34 3069.86,2732.56"/>
    </edge>
    <edge id=":3944662872_0" function="internal">
        <lane id=":3944662872_0_0" index="0" disallow="tram rail_urban rail rail_electric rail_fast ship" speed="17.88" length="9.40" shape="3236.22,2765.43 3227.56,2769.08"/>
        <lane id=":3944662872_0_1" index="1" disallow="tram rail_urban rail rail_electric rail_fast ship" speed="17.88" length="9.40" shape="3234.98,2762.48 3226.32,2766.14"/>
        <lane id=":3944662872_0_2" index="2" disallow="tram rail_urban rail rail_electric rail_fast ship" speed="17.88" length="9.40" shape="3233.73,2759.53 3225.07,2763.19"/>
    </edge>
    <edge id=":3944662872_3" function="internal">
        <lane id=":3944662872_3_0" index="0" allow="pedestrian delivery bicycle" speed="7.69" length="2.77" shape="3233.73,2759.53 3231.01,2760.04"/>
    </edge>
    <edge id=":3944662872_4" function="internal">
        <lane id=":3944662872_4_0" index="0" disallow="tram rail_urban rail rail_electric rail_fast ship" speed="3.65" length="1.44" shape="3233.73,2759.53 3232.32,2759.26"/>
    </edge>
    <edge id=":3944662872_13" function="internal">
        <lane id=":3944662872_13_0" index="0" allow="pedestrian delivery bicycle" speed="7.69" length="10.06" shape="3231.01,2760.04 3228.52,2759.15 3226.24,2756.88 3224.20,2753.21"/>
    </edge>
    <edge id=":3944662872_14" function="internal">
        <lane id=":3944662872_14_0" index="0" disallow="tram rail_urban rail rail_electric rail_fast ship" speed="3.65" length="3.23" shape="3232.32,2759.26 3231.64,2758.68 3231.69,2757.79 3232.49,2756.59"/>
    </edge>
    <edge id=":3944662872_5" function="internal">
        <lane id=":3944662872_5_0" index="0" allow="pedestrian delivery bicycle" speed="5.10" length="5.07" shape="3227.12,2751.91 3227.87,2753.12 3228.80,2753.80 3229.93,2753.98 3231.25,2753.64"/>
    </edge>
    <edge id=":3944662872_6" function="internal">
        <lane id=":3944662872_6_0" index="0" allow="pedestrian delivery bicycle" speed="8.36" length="15.82" shape="3227.12,2751.91 3229.02,2757.19 3229.52,2761.32 3228.61,2764.30 3226.32,2766.14"/>
        <lane id=":3944662872_6_1" index="1" allow="pedestrian delivery bicycle" speed="7.62" length="12.97" shape="3227.12,2751.91 3228.45,2755.91 3228.56,2759.12 3227.43,2761.54 3225.07,2763.19"/>
    </edge>
    <edge id=":3944662872_8" function="internal">
        <lane id=":3944662872_8_0" index="0" allow="pedestrian delivery bicycle" speed="3.65" length="4.67" shape="3227.12,2751.91 3226.88,2753.34 3226.31,2754.03 3225.42,2753.99 3224.20,2753.21"/>
    </edge>
    <edge id=":3944662872_9" function="internal">
        <lane id=":3944662872_9_0" index="0" allow="pedestrian delivery bicycle" speed="5.02" length="5.02" shape="3222.58,2757.29 3223.77,2756.58 3224.43,2755.66 3224.57,2754.54 3224.20,2753.21"/>
    </edge>
    <edge id=":3944662872_10" function="internal">
        <lane id=":3944662872_10_0" index="0" disallow="tram rail_urban rail rail_electric rail_fast ship" speed="17.88" length="9.40" shape="3222.58,2757.29 3231.25,2753.64"/>
        <lane id=":3944662872_10_1" index="1" disallow="tram rail_urban rail rail_electric rail_fast ship" speed="17.88" length="9.40" shape="3223.83,2760.24 3232.49,2756.59"/>
    </edge>
    <edge id=":3944662872_12" function="internal">
        <lane id=":3944662872_12_0" index="0" disallow="tram rail_urban rail rail_electric rail_fast ship" speed="3.65" length="1.44" shape="3223.83,2760.24 3225.24,2760.51"/>
    </edge>
    <edge id=":3944662872_15" function="internal">
        <lane id=":3944662872_15_0" index="0" disallow="tram rail_urban rail rail_electric rail_fast ship" speed="3.65" length="3.23" shape="3225.24,2760.51 3225.92,2761.09 3225.87,2761.98 3225.07,2763.19"/>
    </edge>
    <edge id=":3944662872_w0" function="walkingarea">
        <lane id=":3944662872_w0_0" index="0" allow="pedestrian" speed="1.00" length="11.28" width="3.20" shape="3236.84,2766.90 3235.60,2763.96 3235.60,2763.96 3234.35,2761.01 3234.35,2761.01 3233.11,2758.06 3233.11,2758.06 3231.87,2755.11 3231.87,2755.11 3230.62,2752.16 3228.58,2751.27 3225.66,2752.56 3225.66,2752.56 3222.74,2753.86 3221.96,2755.82 3223.21,2758.76 3223.21,2758.76 3224.45,2761.71 3224.45,2761.71 3225.69,2764.66 3225.69,2764.66 3226.94,2767.61 3226.94,2767.61 3228.18,2770.56"/>
    </edge>
    <edge id=":3944662876_0" function="internal">
        <lane id=":3944662876_0_0" index="0" allow="delivery bicycle" speed="5.66" length="6.79" shape="3214.79,2780.08 3213.81,2778.04 3212.69,2776.76 3211.41,2776.25 3209.99,2776.50"/>
    </edge>
    <edge id=":3944662876_1" function="internal">
        <lane id=":3944662876_1_0" index="0" allow="pedestrian delivery bicycle" speed="8.95" length="17.41" shape="3214.79,2780.08 3212.87,2773.88 3212.27,2769.12 3212.98,2765.82 3215.00,2763.96"/>
    </edge>
    <edge id=":3944662876_2" function="internal">
        <lane id=":3944662876_2_0" index="0" allow="pedestrian delivery bicycle" speed="3.65" length="4.67" shape="3214.79,2780.08 3215.12,2778.68 3215.73,2778.02 3216.62,2778.12 3217.79,2778.97"/>
    </edge>
    <edge id=":3944662876_3" function="internal">
        <lane id=":3944662876_3_0" index="0" allow="pedestrian delivery bicycle" speed="5.87" length="6.91" shape="3218.73,2772.81 3217.63,2773.63 3217.10,2774.94 3217.16,2776.71 3217.79,2778.97"/>
    </edge>
    <edge id=":3944662876_4" function="internal">
        <lane id=":3944662876_4_0" index="0" disallow="pedestrian tram rail_urban rail rail_electric rail_fast ship" speed="17.88" length="9.49" shape="3218.73,2772.81 3209.99,2776.50"/>
        <lane id=":3944662876_4_1" index="1" disallow="pedestrian tram rail_urban rail rail_electric rail_fast ship" speed="17.88" length="9.49" shape="3217.49,2769.86 3208.74,2773.55"/>
        <lane id=":3944662876_4_2" index="2" disallow="pedestrian tram rail_urban rail rail_electric rail_fast ship" speed="17.88" length="9.49" shape="3216.25,2766.91 3207.50,2770.60"/>
    </edge>
    <edge id=":3944662876_7" function="internal">
        <lane id=":3944662876_7_0" index="0" disallow="tram rail_urban rail rail_electric rail_fast ship" speed="3.65" length="1.44" shape="3216.25,2766.91 3214.83,2766.64"/>
    </edge>
    <edge id=":3944662876_11" function="internal">