<additional>
	<e2Detector file="e2Output.xml" freq="900" id="ValidSensor_1" lane="South1_0" length="180" pos="332.37" />
	<e2Detector file="e2Output.xml" freq="900" id="ValidSensor_2" lane="South1_1" length="180" pos="332.37" />
	<e2Detector file="e2Output.xml" freq="900" id="ValidSensor_3_0" lane="West19_0" length="180" pos="83.87" />
	<e2Detector file="e2Output.xml" freq="900" id="ValidSensor_3_1" lane="West19_1" length="180" pos="83.87" />
	<e2Detector file="e2Output.xml" freq="900" id="ValidSensor_4" lane="West19_2" length="180" pos="83.87" />
	<e2Detector file="e2Output.xml" freq="900" id="ValidSensor_5" lane="North1_0" length="180" pos="332.37" />
	<e2Detector file="e2Output.xml" freq="900" id="ValidSensor_6" lane="North1_1" length="180" pos="332.37" />
	<e2Detector file="e2Output.xml" freq="900" id="ValidSensor_7_0" lane="East1_0" length="180" pos="332.37" />
	<e2Detector file="e2Output.xml" freq="900" id="ValidSensor_7_1" lane="East1_1" length="180" pos="332.37" />
	<e2Detector file="e2Output.xml" freq="900" id="ValidSensor_8" lane="East1_2" length="180" pos="332.37" />
</additional>